@<TRIPOS>MOLECULE
[[[5-(6-aminopurin-9-yl)-3,4-dihydroxy-tetrahydrofuran-2-yl]methoxy-oxido-phosphoryl]oxy-hydroxy-phosphoryl]methyl-hydroxy-phosphinate
   47    49     1     0     0
SMALL
USER_CHARGES

@<TRIPOS>ATOM
      1 PG          1.0738    6.8752    1.4188 P.3       1 ACP         1.3516
      2 O1G         1.7851    8.1818    1.1537 O.co2     1 ACP        -0.8379
      3 O2G         0.4664    6.0480    0.3095 O.co2     1 ACP        -0.8379
      4 O3G         2.0171    5.9240    2.3492 O.3       1 ACP        -0.7980
      5 PB         -1.3828    5.9471    3.2783 P.3       1 ACP         1.7688
      6 O1B        -2.3943    6.4334    4.2725 O.2       1 ACP        -0.9167
      7 O2B        -0.3908    4.7953    3.8269 O.3       1 ACP        -0.8201
      8 C3B        -0.2613    7.2158    2.6518 C.3       1 ACP        -0.6097
      9 PA         -2.9650    4.0420    1.6588 P.3       1 ACP         1.5979
     10 O1A        -3.0500    3.8015    0.1672 O.co2     1 ACP        -0.8617
     11 O2A        -4.2197    4.2123    2.4872 O.co2     1 ACP        -0.8617
     12 O3A        -1.9798    5.3173    1.9171 O.3       1 ACP        -0.8283
     13 O5'        -2.0402    2.8619    2.3131 O.3       1 ACP        -0.5783
     14 C5'        -0.8811    2.4285    1.6206 C.3       1 ACP         0.1980
     15 C4'        -0.1994    1.3333    2.4288 C.3       1 ACP         0.0815
     16 O4'        -1.1285    0.2356    2.5840 O.3       1 ACP        -0.4127
     17 C3'         1.0324    0.7610    1.7344 C.3       1 ACP         0.0890
     18 O3'         1.9175    0.2377    2.7247 O.3       1 ACP        -0.6221
     19 C2'         0.4468   -0.3802    0.9263 C.3       1 ACP         0.1067
     20 O2'         1.3993   -1.3703    0.5961 O.3       1 ACP        -0.6053
     21 C1'        -0.6159   -0.9100    1.8769 C.3       1 ACP         0.4223
     22 N9         -1.7127   -1.6108    1.2130 N.pl3     1 ACP        -0.6834
     23 C8         -1.7712   -2.9546    0.9544 C.ar      1 ACP         0.5614
     24 N7         -2.8883   -3.2948    0.3462 N.2       1 ACP        -0.5751
     25 C5         -3.5834   -2.1202    0.2043 C.ar      1 ACP        -0.2117
     26 C6         -4.8225   -1.8251   -0.3554 C.ar      1 ACP         0.7177
     27 N6         -5.6154   -2.8395   -0.9189 N.pl3     1 ACP        -0.9401
     28 N1         -5.2589   -0.5425   -0.3507 N.ar      1 ACP        -0.8008
     29 C2         -4.4510    0.3913    0.2069 C.ar      1 ACP         0.6565
     30 N3         -3.2368    0.2296    0.7767 N.ar      1 ACP        -0.7061
     31 C4         -2.8684   -1.0596    0.7376 C.ar      1 ACP         0.5715
     32 HOG3        2.9000    5.6650    2.0092 H         1 ACP         0.4226
     33 HOB2       -0.7735    3.9476    4.1384 H         1 ACP         0.4482
     34 H3B1        0.2340    7.6754    3.5146 H         1 ACP         0.1012
     35 H3B2       -0.8823    7.9902    2.1891 H         1 ACP         0.1012
     36 H5'1       -1.1770    2.0503    0.6369 H         1 ACP         0.0481
     37 H5'2       -0.2082    3.2815    1.4877 H         1 ACP         0.0481
     38 H4'         0.0403    1.7078    3.4343 H         1 ACP         0.0904
     39 H3'         1.5906    1.4859    1.1353 H         1 ACP         0.0809
     40 HO3'        2.6839   -0.1150    2.2479 H         1 ACP         0.4528
     41 H2'        -0.0017    0.0018    0.0005 H         1 ACP         0.0594
     42 HO2'        2.0953   -0.9375    0.0709 H         1 ACP         0.4344
     43 H1'        -0.1998   -1.6319    2.6178 H         1 ACP         0.1127
     44 H8         -0.9745   -3.6312    1.2318 H         1 ACP         0.1050
     45 HN61       -5.2619   -3.7766   -0.9586 H         1 ACP         0.4211
     46 HN62       -6.4834   -2.5990   -1.3590 H         1 ACP         0.4211
     47 H2         -4.8317    1.4071    0.1930 H         1 ACP         0.0375
@<TRIPOS>BOND
     1    1    2 2
     2    1    3 1
     3    1    4 1
     4    1    8 1
     5    4   32 1
     6    5    6 2
     7    5    7 1
     8    5    8 1
     9    5   12 1
    10    7   33 1
    11    8   34 1
    12    8   35 1
    13    9   10 2
    14    9   11 1
    15    9   12 1
    16    9   13 1
    17   13   14 1
    18   14   15 1
    19   14   36 1
    20   14   37 1
    21   15   16 1
    22   15   17 1
    23   15   38 1
    24   16   21 1
    25   17   18 1
    26   17   19 1
    27   17   39 1
    28   18   40 1
    29   19   20 1
    30   19   21 1
    31   19   41 1
    32   20   42 1
    33   21   22 1
    34   21   43 1
    35   22   23 ar
    36   22   31 ar
    37   23   24 ar
    38   23   44 1
    39   24   25 ar
    40   25   26 ar
    41   25   31 ar
    42   26   27 1
    43   26   28 ar
    44   27   45 1
    45   27   46 1
    46   28   29 ar
    47   29   30 ar
    48   29   47 1
    49   30   31 ar
@<TRIPOS>SUBSTRUCTURE
     1 ACP         1 GROUP 0 A     ****
@<TRIPOS>MOLECULE
[[[5-(6-aminopurin-9-yl)-3,4-dihydroxy-tetrahydrofuran-2-yl]methoxy-oxido-phosphoryl]oxy-hydroxy-phosphoryl]methyl-hydroxy-phosphinate
   47    49     1     0     0
SMALL
USER_CHARGES

@<TRIPOS>ATOM
      1 PG         -2.9160    1.5408   -2.6001 P.3       1 ACP         1.3516
      2 O1G        -2.0835    1.1021   -1.4178 O.co2     1 ACP        -0.8379
      3 O2G        -2.3889    2.4928   -3.6489 O.co2     1 ACP        -0.8379
      4 O3G        -3.5530    0.2292   -3.3307 O.3       1 ACP        -0.7980
      5 PB         -4.5275    3.6905   -0.8292 P.3       1 ACP         1.7688
      6 O1B        -5.9006    4.1163   -0.4033 O.2       1 ACP        -0.9167
      7 O2B        -3.6835    4.8163   -1.6243 O.3       1 ACP        -0.8201
      8 C3B        -4.4822    2.2622   -1.9328 C.3       1 ACP        -0.6097
      9 PA         -2.9650    4.0420    1.6588 P.3       1 ACP         1.5979
     10 O1A        -4.1237    4.3063    2.5955 O.co2     1 ACP        -0.8617
     11 O2A        -2.0759    5.1733    1.1904 O.co2     1 ACP        -0.8617
     12 O3A        -3.5314    3.2366    0.3573 O.3       1 ACP        -0.8283
     13 O5'        -2.0402    2.8619    2.3131 O.3       1 ACP        -0.5783
     14 C5'        -0.8811    2.4285    1.6206 C.3       1 ACP         0.1980
     15 C4'        -0.1994    1.3333    2.4288 C.3       1 ACP         0.0815
     16 O4'        -1.1285    0.2356    2.5840 O.3       1 ACP        -0.4127
     17 C3'         1.0324    0.7610    1.7344 C.3       1 ACP         0.0890
     18 O3'         1.9175    0.2377    2.7247 O.3       1 ACP        -0.6221
     19 C2'         0.4468   -0.3802    0.9263 C.3       1 ACP         0.1067
     20 O2'         1.3993   -1.3703    0.5961 O.3       1 ACP        -0.6053
     21 C1'        -0.6159   -0.9100    1.8769 C.3       1 ACP         0.4223
     22 N9         -1.7127   -1.6108    1.2130 N.pl3     1 ACP        -0.6834
     23 C8         -2.8641   -1.0399    0.7392 C.ar      1 ACP         0.5614
     24 N7         -3.6659   -1.9257    0.1858 N.2       1 ACP        -0.5751
     25 C5         -3.0053   -3.1223    0.3069 C.ar      1 ACP        -0.2117
     26 C6         -3.3321   -4.4178   -0.0813 C.ar      1 ACP         0.7177
     27 N6         -4.5476   -4.6866   -0.7335 N.pl3     1 ACP        -0.9401
     28 N1         -2.4608   -5.4225    0.1773 N.ar      1 ACP        -0.8008
     29 C2         -1.3053   -5.1020    0.8081 C.ar      1 ACP         0.6565
     30 N3         -0.8788   -3.8921    1.2315 N.ar      1 ACP        -0.7061
     31 C4         -1.7870   -2.9477    0.9438 C.ar      1 ACP         0.5715
     32 HOG3       -2.9421   -0.4484   -3.6912 H         1 ACP         0.4226
     33 HOB2       -3.4883    5.6673   -1.1774 H         1 ACP         0.4482
     34 H3B1       -5.1024    2.4978   -2.8051 H         1 ACP         0.1012
     35 H3B2       -4.9716    1.4362   -1.4056 H         1 ACP         0.1012
     36 H5'1       -1.1770    2.0503    0.6369 H         1 ACP         0.0481
     37 H5'2       -0.2082    3.2815    1.4877 H         1 ACP         0.0481
     38 H4'         0.0403    1.7078    3.4343 H         1 ACP         0.0904
     39 H3'         1.5906    1.4859    1.1353 H         1 ACP         0.0809
     40 HO3'        2.6839   -0.1150    2.2479 H         1 ACP         0.4528
     41 H2'        -0.0017    0.0018    0.0005 H         1 ACP         0.0594
     42 HO2'        2.0953   -0.9375    0.0709 H         1 ACP         0.4344
     43 H1'        -0.1998   -1.6319    2.6178 H         1 ACP         0.1127
     44 H8         -3.0609    0.0200    0.8250 H         1 ACP         0.1050
     45 HN61       -5.2046   -3.9433   -0.8775 H         1 ACP         0.4211
     46 HN62       -4.7849   -5.6332   -0.9625 H         1 ACP         0.4211
     47 H2         -0.6318   -5.9307    0.9993 H         1 ACP         0.0375
@<TRIPOS>BOND
     1    1    2 2
     2    1    3 1
     3    1    4 1
     4    1    8 1
     5    4   32 1
     6    5    6 2
     7    5    7 1
     8    5    8 1
     9    5   12 1
    10    7   33 1
    11    8   34 1
    12    8   35 1
    13    9   10 2
    14    9   11 1
    15    9   12 1
    16    9   13 1
    17   13   14 1
    18   14   15 1
    19   14   36 1
    20   14   37 1
    21   15   16 1
    22   15   17 1
    23   15   38 1
    24   16   21 1
    25   17   18 1
    26   17   19 1
    27   17   39 1
    28   18   40 1
    29   19   20 1
    30   19   21 1
    31   19   41 1
    32   20   42 1
    33   21   22 1
    34   21   43 1
    35   22   23 ar
    36   22   31 ar
    37   23   24 ar
    38   23   44 1
    39   24   25 ar
    40   25   26 ar
    41   25   31 ar
    42   26   27 1
    43   26   28 ar
    44   27   45 1
    45   27   46 1
    46   28   29 ar
    47   29   30 ar
    48   29   47 1
    49   30   31 ar
@<TRIPOS>SUBSTRUCTURE
     1 ACP         1 GROUP 0 A     ****
@<TRIPOS>MOLECULE
[[[5-(6-aminopurin-9-yl)-3,4-dihydroxy-tetrahydrofuran-2-yl]methoxy-oxido-phosphoryl]oxy-hydroxy-phosphoryl]methyl-hydroxy-phosphinate
   47    49     1     0     0
SMALL
USER_CHARGES

@<TRIPOS>ATOM
      1 PG         -6.0484    1.1095   -0.0291 P.3       1 ACP         1.3516
      2 O1G        -5.0851    0.6595    1.0447 O.co2     1 ACP        -0.8379
      3 O2G        -6.5875    0.1634   -1.0770 O.co2     1 ACP        -0.8379
      4 O3G        -7.2866    1.9184    0.6583 O.3       1 ACP        -0.7980
      5 PB         -4.7850    4.0680   -0.1005 P.3       1 ACP         1.7688
      6 O1B        -5.9119    4.8129    0.5501 O.2       1 ACP        -0.9167
      7 O2B        -4.0062    4.8879   -1.2550 O.3       1 ACP        -0.8201
      8 C3B        -5.2609    2.5286   -0.9151 C.3       1 ACP        -0.6097
      9 PA         -2.5929    4.4189    1.8558 P.3       1 ACP         1.5979
     10 O1A        -3.4090    5.0304    2.9738 O.co2     1 ACP        -0.8617
     11 O2A        -1.6852    5.2776    1.0023 O.co2     1 ACP        -0.8617
     12 O3A        -3.6015    3.5815    0.8837 O.3       1 ACP        -0.8283
     13 O5'        -1.7337    3.1724    2.4753 O.3       1 ACP        -0.5783
     14 C5'        -0.8811    2.4285    1.6206 C.3       1 ACP         0.1980
     15 C4'        -0.1994    1.3333    2.4288 C.3       1 ACP         0.0815
     16 O4'        -1.1285    0.2356    2.5840 O.3       1 ACP        -0.4127
     17 C3'         1.0324    0.7610    1.7344 C.3       1 ACP         0.0890
     18 O3'         1.9175    0.2377    2.7247 O.3       1 ACP        -0.6221
     19 C2'         0.4468   -0.3802    0.9263 C.3       1 ACP         0.1067
     20 O2'         1.3993   -1.3703    0.5961 O.3       1 ACP        -0.6053
     21 C1'        -0.6159   -0.9100    1.8769 C.3       1 ACP         0.4223
     22 N9         -1.7127   -1.6108    1.2130 N.pl3     1 ACP        -0.6834
     23 C8         -2.5476   -1.0844    0.2632 C.ar      1 ACP         0.5614
     24 N7         -3.4391   -1.9591   -0.1536 N.2       1 ACP        -0.5751
     25 C5         -3.1701   -3.1016    0.5574 C.ar      1 ACP        -0.2117
     26 C6         -3.7593   -4.3620    0.5656 C.ar      1 ACP         0.7177
     27 N6         -4.8512   -4.6493   -0.2712 N.pl3     1 ACP        -0.9401
     28 N1         -3.2659   -5.3144    1.3932 N.ar      1 ACP        -0.8008
     29 C2         -2.2122   -4.9785    2.1759 C.ar      1 ACP         0.6565
     30 N3         -1.5595   -3.7985    2.2572 N.ar      1 ACP        -0.7061
     31 C4         -2.0986   -2.9054    1.4140 C.ar      1 ACP         0.5715
     32 HOG3       -7.8440    1.4499    1.3155 H         1 ACP         0.4226
     33 HOB2       -3.5660    5.7331   -1.0227 H         1 ACP         0.4482
     34 H3B1       -4.3678    2.1222   -1.4032 H         1 ACP         0.1012
     35 H3B2       -5.9675    2.7931   -1.7091 H         1 ACP         0.1012
     36 H5'1       -1.4802    1.9928    0.8147 H         1 ACP         0.0481
     37 H5'2       -0.1369    3.1042    1.1873 H         1 ACP         0.0481
     38 H4'         0.0403    1.7078    3.4343 H         1 ACP         0.0904
     39 H3'         1.5906    1.4859    1.1353 H         1 ACP         0.0809
     40 HO3'        2.6839   -0.1150    2.2479 H         1 ACP         0.4528
     41 H2'        -0.0017    0.0018    0.0005 H         1 ACP         0.0594
     42 HO2'        2.0953   -0.9375    0.0709 H         1 ACP         0.4344
     43 H1'        -0.1998   -1.6319    2.6178 H         1 ACP         0.1127
     44 H8         -2.4576   -0.0639   -0.0831 H         1 ACP         0.1050
     45 HN61       -5.2371   -3.9234   -0.8448 H         1 ACP         0.4211
     46 HN62       -5.2909   -5.5485   -0.2160 H         1 ACP         0.4211
     47 H2         -1.8433   -5.7650    2.8259 H         1 ACP         0.0375
@<TRIPOS>BOND
     1    1    2 2
     2    1    3 1
     3    1    4 1
     4    1    8 1
     5    4   32 1
     6    5    6 2
     7    5    7 1
     8    5    8 1
     9    5   12 1
    10    7   33 1
    11    8   34 1
    12    8   35 1
    13    9   10 2
    14    9   11 1
    15    9   12 1
    16    9   13 1
    17   13   14 1
    18   14   15 1
    19   14   36 1
    20   14   37 1
    21   15   16 1
    22   15   17 1
    23   15   38 1
    24   16   21 1
    25   17   18 1
    26   17   19 1
    27   17   39 1
    28   18   40 1
    29   19   20 1
    30   19   21 1
    31   19   41 1
    32   20   42 1
    33   21   22 1
    34   21   43 1
    35   22   23 ar
    36   22   31 ar
    37   23   24 ar
    38   23   44 1
    39   24   25 ar
    40   25   26 ar
    41   25   31 ar
    42   26   27 1
    43   26   28 ar
    44   27   45 1
    45   27   46 1
    46   28   29 ar
    47   29   30 ar
    48   29   47 1
    49   30   31 ar
@<TRIPOS>SUBSTRUCTURE
     1 ACP         1 GROUP 0 A     ****
@<TRIPOS>MOLECULE
[[[5-(6-aminopurin-9-yl)-3,4-dihydroxy-tetrahydrofuran-2-yl]methoxy-oxido-phosphoryl]oxy-hydroxy-phosphoryl]methyl-hydroxy-phosphinate
   47    49     1     0     0
SMALL
USER_CHARGES

@<TRIPOS>ATOM
      1 PG          1.0411    7.2637    1.7898 P.3       1 ACP         1.3516
      2 O1G         1.9673    8.0497    2.6885 O.co2     1 ACP        -0.8379
      3 O2G         1.0691    7.4006    0.2850 O.co2     1 ACP        -0.8379
      4 O3G         1.1082    5.6843    2.1910 O.3       1 ACP        -0.7980
      5 PB         -2.1462    6.8838    1.5647 P.3       1 ACP         1.7688
      6 O1B        -2.3130    7.2132    0.1115 O.2       1 ACP        -0.9167
      7 O2B        -3.3655    7.3593    2.5129 O.3       1 ACP        -0.8201
      8 C3B        -0.6884    7.6076    2.3461 C.3       1 ACP        -0.6097
      9 PA         -2.9650    4.0420    1.6588 P.3       1 ACP         1.5979
     10 O1A        -3.0500    3.8015    0.1672 O.co2     1 ACP        -0.8617
     11 O2A        -4.2197    4.2123    2.4872 O.co2     1 ACP        -0.8617
     12 O3A        -1.9798    5.3173    1.9171 O.3       1 ACP        -0.8283
     13 O5'        -2.0402    2.8619    2.3131 O.3       1 ACP        -0.5783
     14 C5'        -0.8811    2.4285    1.6206 C.3       1 ACP         0.1980
     15 C4'        -0.1994    1.3333    2.4288 C.3       1 ACP         0.0815
     16 O4'        -1.1285    0.2356    2.5840 O.3       1 ACP        -0.4127
     17 C3'         1.0324    0.7610    1.7344 C.3       1 ACP         0.0890
     18 O3'         1.9175    0.2377    2.7247 O.3       1 ACP        -0.6221
     19 C2'         0.4468   -0.3802    0.9263 C.3       1 ACP         0.1067
     20 O2'         1.3993   -1.3703    0.5961 O.3       1 ACP        -0.6053
     21 C1'        -0.6159   -0.9100    1.8769 C.3       1 ACP         0.4223
     22 N9         -1.7127   -1.6108    1.2130 N.pl3     1 ACP        -0.6834
     23 C8         -1.7712   -2.9546    0.9544 C.ar      1 ACP         0.5614
     24 N7         -2.8883   -3.2948    0.3462 N.2       1 ACP        -0.5751
     25 C5         -3.5834   -2.1202    0.2043 C.ar      1 ACP        -0.2117
     26 C6         -4.8225   -1.8251   -0.3554 C.ar      1 ACP         0.7177
     27 N6         -5.6154   -2.8395   -0.9189 N.pl3     1 ACP        -0.9401
     28 N1         -5.2589   -0.5425   -0.3507 N.ar      1 ACP        -0.8008
     29 C2         -4.4510    0.3913    0.2069 C.ar      1 ACP         0.6565
     30 N3         -3.2368    0.2296    0.7767 N.ar      1 ACP        -0.7061
     31 C4         -2.8684   -1.0596    0.7376 C.ar      1 ACP         0.5715
     32 HOG3        1.9712    5.2221    2.1285 H         1 ACP         0.4226
     33 HOB2       -4.2654    7.0090    2.3410 H         1 ACP         0.4482
     34 H3B1       -0.7205    7.3495    3.4107 H         1 ACP         0.1012
     35 H3B2       -0.7963    8.6954    2.2770 H         1 ACP         0.1012
     36 H5'1       -1.1770    2.0503    0.6369 H         1 ACP         0.0481
     37 H5'2       -0.2082    3.2815    1.4877 H         1 ACP         0.0481
     38 H4'         0.0403    1.7078    3.4343 H         1 ACP         0.0904
     39 H3'         1.5906    1.4859    1.1353 H         1 ACP         0.0809
     40 HO3'        2.6839   -0.1150    2.2479 H         1 ACP         0.4528
     41 H2'        -0.0017    0.0018    0.0005 H         1 ACP         0.0594
     42 HO2'        2.0953   -0.9375    0.0709 H         1 ACP         0.4344
     43 H1'        -0.1998   -1.6319    2.6178 H         1 ACP         0.1127
     44 H8         -0.9745   -3.6312    1.2318 H         1 ACP         0.1050
     45 HN61       -5.2619   -3.7766   -0.9586 H         1 ACP         0.4211
     46 HN62       -6.4834   -2.5990   -1.3590 H         1 ACP         0.4211
     47 H2         -4.8317    1.4071    0.1930 H         1 ACP         0.0375
@<TRIPOS>BOND
     1    1    2 2
     2    1    3 1
     3    1    4 1
     4    1    8 1
     5    4   32 1
     6    5    6 2
     7    5    7 1
     8    5    8 1
     9    5   12 1
    10    7   33 1
    11    8   34 1
    12    8   35 1
    13    9   10 2
    14    9   11 1
    15    9   12 1
    16    9   13 1
    17   13   14 1
    18   14   15 1
    19   14   36 1
    20   14   37 1
    21   15   16 1
    22   15   17 1
    23   15   38 1
    24   16   21 1
    25   17   18 1
    26   17   19 1
    27   17   39 1
    28   18   40 1
    29   19   20 1
    30   19   21 1
    31   19   41 1
    32   20   42 1
    33   21   22 1
    34   21   43 1
    35   22   23 ar
    36   22   31 ar
    37   23   24 ar
    38   23   44 1
    39   24   25 ar
    40   25   26 ar
    41   25   31 ar
    42   26   27 1
    43   26   28 ar
    44   27   45 1
    45   27   46 1
    46   28   29 ar
    47   29   30 ar
    48   29   47 1
    49   30   31 ar
@<TRIPOS>SUBSTRUCTURE
     1 ACP         1 GROUP 0 A     ****
@<TRIPOS>MOLECULE
[[[5-(6-aminopurin-9-yl)-3,4-dihydroxy-tetrahydrofuran-2-yl]methoxy-oxido-phosphoryl]oxy-hydroxy-phosphoryl]methyl-hydroxy-phosphinate
   47    49     1     0     0
SMALL
USER_CHARGES

@<TRIPOS>ATOM
      1 PG          1.0738    6.8752    1.4188 P.3       1 ACP         1.3516
      2 O1G         1.7851    8.1818    1.1537 O.co2     1 ACP        -0.8379
      3 O2G         0.4664    6.0480    0.3095 O.co2     1 ACP        -0.8379
      4 O3G         2.0171    5.9240    2.3492 O.3       1 ACP        -0.7980
      5 PB         -1.3828    5.9471    3.2783 P.3       1 ACP         1.7688
      6 O1B        -2.3943    6.4334    4.2725 O.2       1 ACP        -0.9167
      7 O2B        -0.3908    4.7953    3.8269 O.3       1 ACP        -0.8201
      8 C3B        -0.2613    7.2158    2.6518 C.3       1 ACP        -0.6097
      9 PA         -2.9650    4.0420    1.6588 P.3       1 ACP         1.5979
     10 O1A        -3.0500    3.8015    0.1672 O.co2     1 ACP        -0.8617
     11 O2A        -4.2197    4.2123    2.4872 O.co2     1 ACP        -0.8617
     12 O3A        -1.9798    5.3173    1.9171 O.3       1 ACP        -0.8283
     13 O5'        -2.0402    2.8619    2.3131 O.3       1 ACP        -0.5783
     14 C5'        -0.8811    2.4285    1.6206 C.3       1 ACP         0.1980
     15 C4'        -0.1994    1.3333    2.4288 C.3       1 ACP         0.0815
     16 O4'        -1.1285    0.2356    2.5840 O.3       1 ACP        -0.4127
     17 C3'         1.0324    0.7610    1.7344 C.3       1 ACP         0.0890
     18 O3'         1.9175    0.2377    2.7247 O.3       1 ACP        -0.6221
     19 C2'         0.4468   -0.3802    0.9263 C.3       1 ACP         0.1067
     20 O2'         1.3993   -1.3703    0.5961 O.3       1 ACP        -0.6053
     21 C1'        -0.6159   -0.9100    1.8769 C.3       1 ACP         0.4223
     22 N9         -1.7127   -1.6108    1.2130 N.pl3     1 ACP        -0.6834
     23 C8         -2.8641   -1.0399    0.7392 C.ar      1 ACP         0.5614
     24 N7         -3.6659   -1.9257    0.1858 N.2       1 ACP        -0.5751
     25 C5         -3.0053   -3.1223    0.3069 C.ar      1 ACP        -0.2117
     26 C6         -3.3321   -4.4178   -0.0813 C.ar      1 ACP         0.7177
     27 N6         -4.5476   -4.6866   -0.7335 N.pl3     1 ACP        -0.9401
     28 N1         -2.4608   -5.4225    0.1773 N.ar      1 ACP        -0.8008
     29 C2         -1.3053   -5.1020    0.8081 C.ar      1 ACP         0.6565
     30 N3         -0.8788   -3.8921    1.2315 N.ar      1 ACP        -0.7061
     31 C4         -1.7870   -2.9477    0.9438 C.ar      1 ACP         0.5715
     32 HOG3        2.9000    5.6650    2.0092 H         1 ACP         0.4226
     33 HOB2       -0.7735    3.9476    4.1384 H         1 ACP         0.4482
     34 H3B1        0.2340    7.6754    3.5146 H         1 ACP         0.1012
     35 H3B2       -0.8823    7.9902    2.1891 H         1 ACP         0.1012
     36 H5'1       -1.1770    2.0503    0.6369 H         1 ACP         0.0481
     37 H5'2       -0.2082    3.2815    1.4877 H         1 ACP         0.0481
     38 H4'         0.0403    1.7078    3.4343 H         1 ACP         0.0904
     39 H3'         1.5906    1.4859    1.1353 H         1 ACP         0.0809
     40 HO3'        2.6839   -0.1150    2.2479 H         1 ACP         0.4528
     41 H2'        -0.0017    0.0018    0.0005 H         1 ACP         0.0594
     42 HO2'        2.0953   -0.9375    0.0709 H         1 ACP         0.4344
     43 H1'        -0.1998   -1.6319    2.6178 H         1 ACP         0.1127
     44 H8         -3.0609    0.0200    0.8250 H         1 ACP         0.1050
     45 HN61       -5.2046   -3.9433   -0.8775 H         1 ACP         0.4211
     46 HN62       -4.7849   -5.6332   -0.9625 H         1 ACP         0.4211
     47 H2         -0.6318   -5.9307    0.9993 H         1 ACP         0.0375
@<TRIPOS>BOND
     1    1    2 2
     2    1    3 1
     3    1    4 1
     4    1    8 1
     5    4   32 1
     6    5    6 2
     7    5    7 1
     8    5    8 1
     9    5   12 1
    10    7   33 1
    11    8   34 1
    12    8   35 1
    13    9   10 2
    14    9   11 1
    15    9   12 1
    16    9   13 1
    17   13   14 1
    18   14   15 1
    19   14   36 1
    20   14   37 1
    21   15   16 1
    22   15   17 1
    23   15   38 1
    24   16   21 1
    25   17   18 1
    26   17   19 1
    27   17   39 1
    28   18   40 1
    29   19   20 1
    30   19   21 1
    31   19   41 1
    32   20   42 1
    33   21   22 1
    34   21   43 1
    35   22   23 ar
    36   22   31 ar
    37   23   24 ar
    38   23   44 1
    39   24   25 ar
    40   25   26 ar
    41   25   31 ar
    42   26   27 1
    43   26   28 ar
    44   27   45 1
    45   27   46 1
    46   28   29 ar
    47   29   30 ar
    48   29   47 1
    49   30   31 ar
@<TRIPOS>SUBSTRUCTURE
     1 ACP         1 GROUP 0 A     ****
@<TRIPOS>MOLECULE
[[[5-(6-aminopurin-9-yl)-3,4-dihydroxy-tetrahydrofuran-2-yl]methoxy-oxido-phosphoryl]oxy-hydroxy-phosphoryl]methyl-hydroxy-phosphinate
   47    49     1     0     0
SMALL
USER_CHARGES

@<TRIPOS>ATOM
      1 PG         -1.2117    1.9209   -3.5501 P.3       1 ACP         1.3516
      2 O1G        -1.0913    1.2701   -2.1917 O.co2     1 ACP        -0.8379
      3 O2G        -0.7653    1.2300   -4.8179 O.co2     1 ACP        -0.8379
      4 O3G        -2.7285    2.4868   -3.7473 O.3       1 ACP        -0.7980
      5 PB         -0.7882    4.8634   -2.3185 P.3       1 ACP         1.7688
      6 O1B        -2.1864    5.3807   -2.4784 O.2       1 ACP        -0.9167
      7 O2B         0.3725    5.9690   -2.5236 O.3       1 ACP        -0.8201
      8 C3B        -0.3301    3.5439   -3.4627 C.3       1 ACP        -0.6097
      9 PA         -0.4663    4.8326    0.6227 P.3       1 ACP         1.5979
     10 O1A        -1.9050    5.1225    0.9915 O.co2     1 ACP        -0.8617
     11 O2A         0.5913    5.9095    0.7295 O.co2     1 ACP        -0.8617
     12 O3A        -0.4395    4.2082   -0.8850 O.3       1 ACP        -0.8283
     13 O5'         0.0181    3.5132    1.4596 O.3       1 ACP        -0.5783
     14 C5'        -0.8811    2.4285    1.6206 C.3       1 ACP         0.1980
     15 C4'        -0.1994    1.3333    2.4288 C.3       1 ACP         0.0815
     16 O4'        -1.1285    0.2356    2.5840 O.3       1 ACP        -0.4127
     17 C3'         1.0324    0.7610    1.7344 C.3       1 ACP         0.0890
     18 O3'         1.9175    0.2377    2.7247 O.3       1 ACP        -0.6221
     19 C2'         0.4468   -0.3802    0.9263 C.3       1 ACP         0.1067
     20 O2'         1.3993   -1.3703    0.5961 O.3       1 ACP        -0.6053
     21 C1'        -0.6159   -0.9100    1.8769 C.3       1 ACP         0.4223
     22 N9         -1.7127   -1.6108    1.2130 N.pl3     1 ACP        -0.6834
     23 C8         -1.7712   -2.9546    0.9544 C.ar      1 ACP         0.5614
     24 N7         -2.8883   -3.2948    0.3462 N.2       1 ACP        -0.5751
     25 C5         -3.5834   -2.1202    0.2043 C.ar      1 ACP        -0.2117
     26 C6         -4.8225   -1.8251   -0.3554 C.ar      1 ACP         0.7177
     27 N6         -5.6154   -2.8395   -0.9189 N.pl3     1 ACP        -0.9401
     28 N1         -5.2589   -0.5425   -0.3507 N.ar      1 ACP        -0.8008
     29 C2         -4.4510    0.3913    0.2069 C.ar      1 ACP         0.6565
     30 N3         -3.2368    0.2296    0.7767 N.ar      1 ACP        -0.7061
     31 C4         -2.8684   -1.0596    0.7376 C.ar      1 ACP         0.5715
     32 HOG3       -3.4741    1.8506   -3.7065 H         1 ACP         0.4226
     33 HOB2        0.3915    6.7527   -1.9341 H         1 ACP         0.4482
     34 H3B1        0.7253    3.3058   -3.2882 H         1 ACP         0.1012
     35 H3B2       -0.4018    3.9592   -4.4736 H         1 ACP         0.1012
     36 H5'1       -1.7769    2.7851    2.1387 H         1 ACP         0.0481
     37 H5'2       -1.1653    2.0543    0.6320 H         1 ACP         0.0481
     38 H4'         0.0403    1.7078    3.4343 H         1 ACP         0.0904
     39 H3'         1.5906    1.4859    1.1353 H         1 ACP         0.0809
     40 HO3'        2.6839   -0.1150    2.2479 H         1 ACP         0.4528
     41 H2'        -0.0017    0.0018    0.0005 H         1 ACP         0.0594
     42 HO2'        2.0953   -0.9375    0.0709 H         1 ACP         0.4344
     43 H1'        -0.1998   -1.6319    2.6178 H         1 ACP         0.1127
     44 H8         -0.9745   -3.6312    1.2318 H         1 ACP         0.1050
     45 HN61       -5.2619   -3.7766   -0.9586 H         1 ACP         0.4211
     46 HN62       -6.4834   -2.5990   -1.3590 H         1 ACP         0.4211
     47 H2         -4.8317    1.4071    0.1930 H         1 ACP         0.0375
@<TRIPOS>BOND
     1    1    2 2
     2    1    3 1
     3    1    4 1
     4    1    8 1
     5    4   32 1
     6    5    6 2
     7    5    7 1
     8    5    8 1
     9    5   12 1
    10    7   33 1
    11    8   34 1
    12    8   35 1
    13    9   10 2
    14    9   11 1
    15    9   12 1
    16    9   13 1
    17   13   14 1
    18   14   15 1
    19   14   36 1
    20   14   37 1
    21   15   16 1
    22   15   17 1
    23   15   38 1
    24   16   21 1
    25   17   18 1
    26   17   19 1
    27   17   39 1
    28   18   40 1
    29   19   20 1
    30   19   21 1
    31   19   41 1
    32   20   42 1
    33   21   22 1
    34   21   43 1
    35   22   23 ar
    36   22   31 ar
    37   23   24 ar
    38   23   44 1
    39   24   25 ar
    40   25   26 ar
    41   25   31 ar
    42   26   27 1
    43   26   28 ar
    44   27   45 1
    45   27   46 1
    46   28   29 ar
    47   29   30 ar
    48   29   47 1
    49   30   31 ar
@<TRIPOS>SUBSTRUCTURE
     1 ACP         1 GROUP 0 A     ****
@<TRIPOS>MOLECULE
[[[5-(6-aminopurin-9-yl)-3,4-dihydroxy-tetrahydrofuran-2-yl]methoxy-oxido-phosphoryl]oxy-hydroxy-phosphoryl]methyl-hydroxy-phosphinate
   47    49     1     0     0
SMALL
USER_CHARGES

@<TRIPOS>ATOM
      1 PG         -6.2124    3.5575   -1.3929 P.3       1 ACP         1.3516
      2 O1G        -6.7628    2.9482   -2.6614 O.co2     1 ACP        -0.8379
      3 O2G        -5.2155    4.6931   -1.4101 O.co2     1 ACP        -0.8379
      4 O3G        -7.4451    3.9345   -0.3937 O.3       1 ACP        -0.7980
      5 PB         -4.6881    2.4325    1.2081 P.3       1 ACP         1.7688
      6 O1B        -4.1518    1.1870    1.8477 O.2       1 ACP        -0.9167
      7 O2B        -5.8148    3.2072    2.0696 O.3       1 ACP        -0.8201
      8 C3B        -5.4729    2.1849   -0.3990 C.3       1 ACP        -0.6097
      9 PA         -2.5929    4.4189    1.8558 P.3       1 ACP         1.5979
     10 O1A        -3.4090    5.0304    2.9738 O.co2     1 ACP        -0.8617
     11 O2A        -1.6852    5.2776    1.0023 O.co2     1 ACP        -0.8617
     12 O3A        -3.6015    3.5815    0.8837 O.3       1 ACP        -0.8283
     13 O5'        -1.7337    3.1724    2.4753 O.3       1 ACP        -0.5783
     14 C5'        -0.8811    2.4285    1.6206 C.3       1 ACP         0.1980
     15 C4'        -0.1994    1.3333    2.4288 C.3       1 ACP         0.0815
     16 O4'        -1.1285    0.2356    2.5840 O.3       1 ACP        -0.4127
     17 C3'         1.0324    0.7610    1.7344 C.3       1 ACP         0.0890
     18 O3'         1.9175    0.2377    2.7247 O.3       1 ACP        -0.6221
     19 C2'         0.4468   -0.3802    0.9263 C.3       1 ACP         0.1067
     20 O2'         1.3993   -1.3703    0.5961 O.3       1 ACP        -0.6053
     21 C1'        -0.6159   -0.9100    1.8769 C.3       1 ACP         0.4223
     22 N9         -1.7127   -1.6108    1.2130 N.pl3     1 ACP        -0.6834
     23 C8         -2.5476   -1.0844    0.2632 C.ar      1 ACP         0.5614
     24 N7         -3.4391   -1.9591   -0.1536 N.2       1 ACP        -0.5751
     25 C5         -3.1701   -3.1016    0.5574 C.ar      1 ACP        -0.2117
     26 C6         -3.7593   -4.3620    0.5656 C.ar      1 ACP         0.7177
     27 N6         -4.8512   -4.6493   -0.2712 N.pl3     1 ACP        -0.9401
     28 N1         -3.2659   -5.3144    1.3932 N.ar      1 ACP        -0.8008
     29 C2         -2.2122   -4.9785    2.1759 C.ar      1 ACP         0.6565
     30 N3         -1.5595   -3.7985    2.2572 N.ar      1 ACP        -0.7061
     31 C4         -2.0986   -2.9054    1.4140 C.ar      1 ACP         0.5715
     32 HOG3       -8.1219    4.5724   -0.7058 H         1 ACP         0.4226
     33 HOB2       -5.5851    3.5371    2.9644 H         1 ACP         0.4482
     34 H3B1       -6.2691    1.4433   -0.2682 H         1 ACP         0.1012
     35 H3B2       -4.7205    1.7345   -1.0553 H         1 ACP         0.1012
     36 H5'1       -1.4802    1.9928    0.8147 H         1 ACP         0.0481
     37 H5'2       -0.1369    3.1042    1.1873 H         1 ACP         0.0481
     38 H4'         0.0403    1.7078    3.4343 H         1 ACP         0.0904
     39 H3'         1.5906    1.4859    1.1353 H         1 ACP         0.0809
     40 HO3'        2.6839   -0.1150    2.2479 H         1 ACP         0.4528
     41 H2'        -0.0017    0.0018    0.0005 H         1 ACP         0.0594
     42 HO2'        2.0953   -0.9375    0.0709 H         1 ACP         0.4344
     43 H1'        -0.1998   -1.6319    2.6178 H         1 ACP         0.1127
     44 H8         -2.4576   -0.0639   -0.0831 H         1 ACP         0.1050
     45 HN61       -5.2371   -3.9234   -0.8448 H         1 ACP         0.4211
     46 HN62       -5.2909   -5.5485   -0.2160 H         1 ACP         0.4211
     47 H2         -1.8433   -5.7650    2.8259 H         1 ACP         0.0375
@<TRIPOS>BOND
     1    1    2 2
     2    1    3 1
     3    1    4 1
     4    1    8 1
     5    4   32 1
     6    5    6 2
     7    5    7 1
     8    5    8 1
     9    5   12 1
    10    7   33 1
    11    8   34 1
    12    8   35 1
    13    9   10 2
    14    9   11 1
    15    9   12 1
    16    9   13 1
    17   13   14 1
    18   14   15 1
    19   14   36 1
    20   14   37 1
    21   15   16 1
    22   15   17 1
    23   15   38 1
    24   16   21 1
    25   17   18 1
    26   17   19 1
    27   17   39 1
    28   18   40 1
    29   19   20 1
    30   19   21 1
    31   19   41 1
    32   20   42 1
    33   21   22 1
    34   21   43 1
    35   22   23 ar
    36   22   31 ar
    37   23   24 ar
    38   23   44 1
    39   24   25 ar
    40   25   26 ar
    41   25   31 ar
    42   26   27 1
    43   26   28 ar
    44   27   45 1
    45   27   46 1
    46   28   29 ar
    47   29   30 ar
    48   29   47 1
    49   30   31 ar
@<TRIPOS>SUBSTRUCTURE
     1 ACP         1 GROUP 0 A     ****
@<TRIPOS>MOLECULE
[[[5-(6-aminopurin-9-yl)-3,4-dihydroxy-tetrahydrofuran-2-yl]methoxy-oxido-phosphoryl]oxy-hydroxy-phosphoryl]methyl-hydroxy-phosphinate
   47    49     1     0     0
SMALL
USER_CHARGES

@<TRIPOS>ATOM
      1 PG         -2.1417    3.8542   -2.7522 P.3       1 ACP         1.3516
      2 O1G        -0.9547    4.7492   -2.4814 O.co2     1 ACP        -0.8379
      3 O2G        -2.5224    3.4197   -4.1487 O.co2     1 ACP        -0.8379
      4 O3G        -2.0674    2.5468   -1.7799 O.3       1 ACP        -0.7980
      5 PB         -3.5941    5.5018   -0.4006 P.3       1 ACP         1.7688
      6 O1B        -4.9043    6.0916    0.0280 O.2       1 ACP        -0.9167
      7 O2B        -2.3864    6.5656   -0.5480 O.3       1 ACP        -0.8201
      8 C3B        -3.6241    4.6634   -1.9993 C.3       1 ACP        -0.6097
      9 PA         -2.5403    4.4097    2.1396 P.3       1 ACP         1.5979
     10 O1A        -3.7850    4.5996    2.9788 O.co2     1 ACP        -0.8617
     11 O2A        -1.3558    5.3389    2.2922 O.co2     1 ACP        -0.8617
     12 O3A        -2.9826    4.3653    0.5693 O.3       1 ACP        -0.8283
     13 O5'        -2.0402    2.8619    2.3131 O.3       1 ACP        -0.5783
     14 C5'        -0.8811    2.4285    1.6206 C.3       1 ACP         0.1980
     15 C4'        -0.1994    1.3333    2.4288 C.3       1 ACP         0.0815
     16 O4'        -1.1285    0.2356    2.5840 O.3       1 ACP        -0.4127
     17 C3'         1.0324    0.7610    1.7344 C.3       1 ACP         0.0890
     18 O3'         1.9175    0.2377    2.7247 O.3       1 ACP        -0.6221
     19 C2'         0.4468   -0.3802    0.9263 C.3       1 ACP         0.1067
     20 O2'         1.3993   -1.3703    0.5961 O.3       1 ACP        -0.6053
     21 C1'        -0.6159   -0.9100    1.8769 C.3       1 ACP         0.4223
     22 N9         -1.7127   -1.6108    1.2130 N.pl3     1 ACP        -0.6834
     23 C8         -1.7712   -2.9546    0.9544 C.ar      1 ACP         0.5614
     24 N7         -2.8883   -3.2948    0.3462 N.2       1 ACP        -0.5751
     25 C5         -3.5834   -2.1202    0.2043 C.ar      1 ACP        -0.2117
     26 C6         -4.8225   -1.8251   -0.3554 C.ar      1 ACP         0.7177
     27 N6         -5.6154   -2.8395   -0.9189 N.pl3     1 ACP        -0.9401
     28 N1         -5.2589   -0.5425   -0.3507 N.ar      1 ACP        -0.8008
     29 C2         -4.4510    0.3913    0.2069 C.ar      1 ACP         0.6565
     30 N3         -3.2368    0.2296    0.7767 N.ar      1 ACP        -0.7061
     31 C4         -2.8684   -1.0596    0.7376 C.ar      1 ACP         0.5715
     32 HOG3       -1.2869    1.9566   -1.8485 H         1 ACP         0.4226
     33 HOB2       -2.1127    7.0854    0.2375 H         1 ACP         0.4482
     34 H3B1       -3.9870    5.3815   -2.7432 H         1 ACP         0.1012
     35 H3B2       -4.3744    3.8687   -1.9287 H         1 ACP         0.1012
     36 H5'1       -1.1770    2.0503    0.6369 H         1 ACP         0.0481
     37 H5'2       -0.2082    3.2815    1.4877 H         1 ACP         0.0481
     38 H4'         0.0403    1.7078    3.4343 H         1 ACP         0.0904
     39 H3'         1.5906    1.4859    1.1353 H         1 ACP         0.0809
     40 HO3'        2.6839   -0.1150    2.2479 H         1 ACP         0.4528
     41 H2'        -0.0017    0.0018    0.0005 H         1 ACP         0.0594
     42 HO2'        2.0953   -0.9375    0.0709 H         1 ACP         0.4344
     43 H1'        -0.1998   -1.6319    2.6178 H         1 ACP         0.1127
     44 H8         -0.9745   -3.6312    1.2318 H         1 ACP         0.1050
     45 HN61       -5.2619   -3.7766   -0.9586 H         1 ACP         0.4211
     46 HN62       -6.4834   -2.5990   -1.3590 H         1 ACP         0.4211
     47 H2         -4.8317    1.4071    0.1930 H         1 ACP         0.0375
@<TRIPOS>BOND
     1    1    2 2
     2    1    3 1
     3    1    4 1
     4    1    8 1
     5    4   32 1
     6    5    6 2
     7    5    7 1
     8    5    8 1
     9    5   12 1
    10    7   33 1
    11    8   34 1
    12    8   35 1
    13    9   10 2
    14    9   11 1
    15    9   12 1
    16    9   13 1
    17   13   14 1
    18   14   15 1
    19   14   36 1
    20   14   37 1
    21   15   16 1
    22   15   17 1
    23   15   38 1
    24   16   21 1
    25   17   18 1
    26   17   19 1
    27   17   39 1
    28   18   40 1
    29   19   20 1
    30   19   21 1
    31   19   41 1
    32   20   42 1
    33   21   22 1
    34   21   43 1
    35   22   23 ar
    36   22   31 ar
    37   23   24 ar
    38   23   44 1
    39   24   25 ar
    40   25   26 ar
    41   25   31 ar
    42   26   27 1
    43   26   28 ar
    44   27   45 1
    45   27   46 1
    46   28   29 ar
    47   29   30 ar
    48   29   47 1
    49   30   31 ar
@<TRIPOS>SUBSTRUCTURE
     1 ACP         1 GROUP 0 A     ****
@<TRIPOS>MOLECULE
[[[5-(6-aminopurin-9-yl)-3,4-dihydroxy-tetrahydrofuran-2-yl]methoxy-oxido-phosphoryl]oxy-hydroxy-phosphoryl]methyl-hydroxy-phosphinate
   47    49     1     0     0
SMALL
USER_CHARGES

@<TRIPOS>ATOM
      1 PG         -0.2561    7.3544    4.1260 P.3       1 ACP         1.3516
      2 O1G         1.0219    8.1158    4.3911 O.co2     1 ACP        -0.8379
      3 O2G        -0.3913    5.8782    4.4199 O.co2     1 ACP        -0.8379
      4 O3G        -1.5119    8.1558    4.7900 O.3       1 ACP        -0.7980
      5 PB         -2.1462    6.8838    1.5647 P.3       1 ACP         1.7688
      6 O1B        -2.3130    7.2132    0.1115 O.2       1 ACP        -0.9167
      7 O2B        -3.3655    7.3593    2.5129 O.3       1 ACP        -0.8201
      8 C3B        -0.6884    7.6076    2.3461 C.3       1 ACP        -0.6097
      9 PA         -2.9650    4.0420    1.6588 P.3       1 ACP         1.5979
     10 O1A        -3.0500    3.8015    0.1672 O.co2     1 ACP        -0.8617
     11 O2A        -4.2197    4.2123    2.4872 O.co2     1 ACP        -0.8617
     12 O3A        -1.9798    5.3173    1.9171 O.3       1 ACP        -0.8283
     13 O5'        -2.0402    2.8619    2.3131 O.3       1 ACP        -0.5783
     14 C5'        -0.8811    2.4285    1.6206 C.3       1 ACP         0.1980
     15 C4'        -0.1994    1.3333    2.4288 C.3       1 ACP         0.0815
     16 O4'        -1.1285    0.2356    2.5840 O.3       1 ACP        -0.4127
     17 C3'         1.0324    0.7610    1.7344 C.3       1 ACP         0.0890
     18 O3'         1.9175    0.2377    2.7247 O.3       1 ACP        -0.6221
     19 C2'         0.4468   -0.3802    0.9263 C.3       1 ACP         0.1067
     20 O2'         1.3993   -1.3703    0.5961 O.3       1 ACP        -0.6053
     21 C1'        -0.6159   -0.9100    1.8769 C.3       1 ACP         0.4223
     22 N9         -1.7127   -1.6108    1.2130 N.pl3     1 ACP        -0.6834
     23 C8         -1.7712   -2.9546    0.9544 C.ar      1 ACP         0.5614
     24 N7         -2.8883   -3.2948    0.3462 N.2       1 ACP        -0.5751
     25 C5         -3.5834   -2.1202    0.2043 C.ar      1 ACP        -0.2117
     26 C6         -4.8225   -1.8251   -0.3554 C.ar      1 ACP         0.7177
     27 N6         -5.6154   -2.8395   -0.9189 N.pl3     1 ACP        -0.9401
     28 N1         -5.2589   -0.5425   -0.3507 N.ar      1 ACP        -0.8008
     29 C2         -4.4510    0.3913    0.2069 C.ar      1 ACP         0.6565
     30 N3         -3.2368    0.2296    0.7767 N.ar      1 ACP        -0.7061
     31 C4         -2.8684   -1.0596    0.7376 C.ar      1 ACP         0.5715
     32 HOG3       -1.5082    8.3110    5.7586 H         1 ACP         0.4226
     33 HOB2       -4.2654    7.0090    2.3410 H         1 ACP         0.4482
     34 H3B1       -0.7374    8.6924    2.1983 H         1 ACP         0.1012
     35 H3B2        0.1836    7.2477    1.7897 H         1 ACP         0.1012
     36 H5'1       -1.1770    2.0503    0.6369 H         1 ACP         0.0481
     37 H5'2       -0.2082    3.2815    1.4877 H         1 ACP         0.0481
     38 H4'         0.0403    1.7078    3.4343 H         1 ACP         0.0904
     39 H3'         1.5906    1.4859    1.1353 H         1 ACP         0.0809
     40 HO3'        2.6839   -0.1150    2.2479 H         1 ACP         0.4528
     41 H2'        -0.0017    0.0018    0.0005 H         1 ACP         0.0594
     42 HO2'        2.0953   -0.9375    0.0709 H         1 ACP         0.4344
     43 H1'        -0.1998   -1.6319    2.6178 H         1 ACP         0.1127
     44 H8         -0.9745   -3.6312    1.2318 H         1 ACP         0.1050
     45 HN61       -5.2619   -3.7766   -0.9586 H         1 ACP         0.4211
     46 HN62       -6.4834   -2.5990   -1.3590 H         1 ACP         0.4211
     47 H2         -4.8317    1.4071    0.1930 H         1 ACP         0.0375
@<TRIPOS>BOND
     1    1    2 2
     2    1    3 1
     3    1    4 1
     4    1    8 1
     5    4   32 1
     6    5    6 2
     7    5    7 1
     8    5    8 1
     9    5   12 1
    10    7   33 1
    11    8   34 1
    12    8   35 1
    13    9   10 2
    14    9   11 1
    15    9   12 1
    16    9   13 1
    17   13   14 1
    18   14   15 1
    19   14   36 1
    20   14   37 1
    21   15   16 1
    22   15   17 1
    23   15   38 1
    24   16   21 1
    25   17   18 1
    26   17   19 1
    27   17   39 1
    28   18   40 1
    29   19   20 1
    30   19   21 1
    31   19   41 1
    32   20   42 1
    33   21   22 1
    34   21   43 1
    35   22   23 ar
    36   22   31 ar
    37   23   24 ar
    38   23   44 1
    39   24   25 ar
    40   25   26 ar
    41   25   31 ar
    42   26   27 1
    43   26   28 ar
    44   27   45 1
    45   27   46 1
    46   28   29 ar
    47   29   30 ar
    48   29   47 1
    49   30   31 ar
@<TRIPOS>SUBSTRUCTURE
     1 ACP         1 GROUP 0 A     ****
@<TRIPOS>MOLECULE
[[[5-(6-aminopurin-9-yl)-3,4-dihydroxy-tetrahydrofuran-2-yl]methoxy-oxido-phosphoryl]oxy-hydroxy-phosphoryl]methyl-hydroxy-phosphinate
   47    49     1     0     0
SMALL
USER_CHARGES

@<TRIPOS>ATOM
      1 PG         -1.2117    1.9209   -3.5501 P.3       1 ACP         1.3516
      2 O1G        -1.0913    1.2701   -2.1917 O.co2     1 ACP        -0.8379
      3 O2G        -0.7653    1.2300   -4.8179 O.co2     1 ACP        -0.8379
      4 O3G        -2.7285    2.4868   -3.7473 O.3       1 ACP        -0.7980
      5 PB         -0.7882    4.8634   -2.3185 P.3       1 ACP         1.7688
      6 O1B        -2.1864    5.3807   -2.4784 O.2       1 ACP        -0.9167
      7 O2B         0.3725    5.9690   -2.5236 O.3       1 ACP        -0.8201
      8 C3B        -0.3301    3.5439   -3.4627 C.3       1 ACP        -0.6097
      9 PA         -0.4663    4.8326    0.6227 P.3       1 ACP         1.5979
     10 O1A        -1.9050    5.1225    0.9915 O.co2     1 ACP        -0.8617
     11 O2A         0.5913    5.9095    0.7295 O.co2     1 ACP        -0.8617
     12 O3A        -0.4395    4.2082   -0.8850 O.3       1 ACP        -0.8283
     13 O5'         0.0181    3.5132    1.4596 O.3       1 ACP        -0.5783
     14 C5'        -0.8811    2.4285    1.6206 C.3       1 ACP         0.1980
     15 C4'        -0.1994    1.3333    2.4288 C.3       1 ACP         0.0815
     16 O4'        -1.1285    0.2356    2.5840 O.3       1 ACP        -0.4127
     17 C3'         1.0324    0.7610    1.7344 C.3       1 ACP         0.0890
     18 O3'         1.9175    0.2377    2.7247 O.3       1 ACP        -0.6221
     19 C2'         0.4468   -0.3802    0.9263 C.3       1 ACP         0.1067
     20 O2'         1.3993   -1.3703    0.5961 O.3       1 ACP        -0.6053
     21 C1'        -0.6159   -0.9100    1.8769 C.3       1 ACP         0.4223
     22 N9         -1.7127   -1.6108    1.2130 N.pl3     1 ACP        -0.6834
     23 C8         -2.8641   -1.0399    0.7392 C.ar      1 ACP         0.5614
     24 N7         -3.6659   -1.9257    0.1858 N.2       1 ACP        -0.5751
     25 C5         -3.0053   -3.1223    0.3069 C.ar      1 ACP        -0.2117
     26 C6         -3.3321   -4.4178   -0.0813 C.ar      1 ACP         0.7177
     27 N6         -4.5476   -4.6866   -0.7335 N.pl3     1 ACP        -0.9401
     28 N1         -2.4608   -5.4225    0.1773 N.ar      1 ACP        -0.8008
     29 C2         -1.3053   -5.1020    0.8081 C.ar      1 ACP         0.6565
     30 N3         -0.8788   -3.8921    1.2315 N.ar      1 ACP        -0.7061
     31 C4         -1.7870   -2.9477    0.9438 C.ar      1 ACP         0.5715
     32 HOG3       -3.4741    1.8506   -3.7065 H         1 ACP         0.4226
     33 HOB2        0.3915    6.7527   -1.9341 H         1 ACP         0.4482
     34 H3B1        0.7253    3.3058   -3.2882 H         1 ACP         0.1012
     35 H3B2       -0.4018    3.9592   -4.4736 H         1 ACP         0.1012
     36 H5'1       -1.7769    2.7851    2.1387 H         1 ACP         0.0481
     37 H5'2       -1.1653    2.0543    0.6320 H         1 ACP         0.0481
     38 H4'         0.0403    1.7078    3.4343 H         1 ACP         0.0904
     39 H3'         1.5906    1.4859    1.1353 H         1 ACP         0.0809
     40 HO3'        2.6839   -0.1150    2.2479 H         1 ACP         0.4528
     41 H2'        -0.0017    0.0018    0.0005 H         1 ACP         0.0594
     42 HO2'        2.0953   -0.9375    0.0709 H         1 ACP         0.4344
     43 H1'        -0.1998   -1.6319    2.6178 H         1 ACP         0.1127
     44 H8         -3.0609    0.0200    0.8250 H         1 ACP         0.1050
     45 HN61       -5.2046   -3.9433   -0.8775 H         1 ACP         0.4211
     46 HN62       -4.7849   -5.6332   -0.9625 H         1 ACP         0.4211
     47 H2         -0.6318   -5.9307    0.9993 H         1 ACP         0.0375
@<TRIPOS>BOND
     1    1    2 2
     2    1    3 1
     3    1    4 1
     4    1    8 1
     5    4   32 1
     6    5    6 2
     7    5    7 1
     8    5    8 1
     9    5   12 1
    10    7   33 1
    11    8   34 1
    12    8   35 1
    13    9   10 2
    14    9   11 1
    15    9   12 1
    16    9   13 1
    17   13   14 1
    18   14   15 1
    19   14   36 1
    20   14   37 1
    21   15   16 1
    22   15   17 1
    23   15   38 1
    24   16   21 1
    25   17   18 1
    26   17   19 1
    27   17   39 1
    28   18   40 1
    29   19   20 1
    30   19   21 1
    31   19   41 1
    32   20   42 1
    33   21   22 1
    34   21   43 1
    35   22   23 ar
    36   22   31 ar
    37   23   24 ar
    38   23   44 1
    39   24   25 ar
    40   25   26 ar
    41   25   31 ar
    42   26   27 1
    43   26   28 ar
    44   27   45 1
    45   27   46 1
    46   28   29 ar
    47   29   30 ar
    48   29   47 1
    49   30   31 ar
@<TRIPOS>SUBSTRUCTURE
     1 ACP         1 GROUP 0 A     ****
@<TRIPOS>MOLECULE
[[[5-(6-aminopurin-9-yl)-3,4-dihydroxy-tetrahydrofuran-2-yl]methoxy-oxido-phosphoryl]oxy-hydroxy-phosphoryl]methyl-hydroxy-phosphinate
   47    49     1     0     0
SMALL
USER_CHARGES

@<TRIPOS>ATOM
      1 PG          1.0411    7.2637    1.7898 P.3       1 ACP         1.3516
      2 O1G         1.9673    8.0497    2.6885 O.co2     1 ACP        -0.8379
      3 O2G         1.0691    7.4006    0.2850 O.co2     1 ACP        -0.8379
      4 O3G         1.1082    5.6843    2.1910 O.3       1 ACP        -0.7980
      5 PB         -2.1462    6.8838    1.5647 P.3       1 ACP         1.7688
      6 O1B        -2.3130    7.2132    0.1115 O.2       1 ACP        -0.9167
      7 O2B        -3.3655    7.3593    2.5129 O.3       1 ACP        -0.8201
      8 C3B        -0.6884    7.6076    2.3461 C.3       1 ACP        -0.6097
      9 PA         -2.9650    4.0420    1.6588 P.3       1 ACP         1.5979
     10 O1A        -3.0500    3.8015    0.1672 O.co2     1 ACP        -0.8617
     11 O2A        -4.2197    4.2123    2.4872 O.co2     1 ACP        -0.8617
     12 O3A        -1.9798    5.3173    1.9171 O.3       1 ACP        -0.8283
     13 O5'        -2.0402    2.8619    2.3131 O.3       1 ACP        -0.5783
     14 C5'        -0.8811    2.4285    1.6206 C.3       1 ACP         0.1980
     15 C4'        -0.1994    1.3333    2.4288 C.3       1 ACP         0.0815
     16 O4'        -1.1285    0.2356    2.5840 O.3       1 ACP        -0.4127
     17 C3'         1.0324    0.7610    1.7344 C.3       1 ACP         0.0890
     18 O3'         1.9175    0.2377    2.7247 O.3       1 ACP        -0.6221
     19 C2'         0.4468   -0.3802    0.9263 C.3       1 ACP         0.1067
     20 O2'         1.3993   -1.3703    0.5961 O.3       1 ACP        -0.6053
     21 C1'        -0.6159   -0.9100    1.8769 C.3       1 ACP         0.4223
     22 N9         -1.7127   -1.6108    1.2130 N.pl3     1 ACP        -0.6834
     23 C8         -2.8641   -1.0399    0.7392 C.ar      1 ACP         0.5614
     24 N7         -3.6659   -1.9257    0.1858 N.2       1 ACP        -0.5751
     25 C5         -3.0053   -3.1223    0.3069 C.ar      1 ACP        -0.2117
     26 C6         -3.3321   -4.4178   -0.0813 C.ar      1 ACP         0.7177
     27 N6         -4.5476   -4.6866   -0.7335 N.pl3     1 ACP        -0.9401
     28 N1         -2.4608   -5.4225    0.1773 N.ar      1 ACP        -0.8008
     29 C2         -1.3053   -5.1020    0.8081 C.ar      1 ACP         0.6565
     30 N3         -0.8788   -3.8921    1.2315 N.ar      1 ACP        -0.7061
     31 C4         -1.7870   -2.9477    0.9438 C.ar      1 ACP         0.5715
     32 HOG3        1.9712    5.2221    2.1285 H         1 ACP         0.4226
     33 HOB2       -4.2654    7.0090    2.3410 H         1 ACP         0.4482
     34 H3B1       -0.7205    7.3495    3.4107 H         1 ACP         0.1012
     35 H3B2       -0.7963    8.6954    2.2770 H         1 ACP         0.1012
     36 H5'1       -1.1770    2.0503    0.6369 H         1 ACP         0.0481
     37 H5'2       -0.2082    3.2815    1.4877 H         1 ACP         0.0481
     38 H4'         0.0403    1.7078    3.4343 H         1 ACP         0.0904
     39 H3'         1.5906    1.4859    1.1353 H         1 ACP         0.0809
     40 HO3'        2.6839   -0.1150    2.2479 H         1 ACP         0.4528
     41 H2'        -0.0017    0.0018    0.0005 H         1 ACP         0.0594
     42 HO2'        2.0953   -0.9375    0.0709 H         1 ACP         0.4344
     43 H1'        -0.1998   -1.6319    2.6178 H         1 ACP         0.1127
     44 H8         -3.0609    0.0200    0.8250 H         1 ACP         0.1050
     45 HN61       -5.2046   -3.9433   -0.8775 H         1 ACP         0.4211
     46 HN62       -4.7849   -5.6332   -0.9625 H         1 ACP         0.4211
     47 H2         -0.6318   -5.9307    0.9993 H         1 ACP         0.0375
@<TRIPOS>BOND
     1    1    2 2
     2    1    3 1
     3    1    4 1
     4    1    8 1
     5    4   32 1
     6    5    6 2
     7    5    7 1
     8    5    8 1
     9    5   12 1
    10    7   33 1
    11    8   34 1
    12    8   35 1
    13    9   10 2
    14    9   11 1
    15    9   12 1
    16    9   13 1
    17   13   14 1
    18   14   15 1
    19   14   36 1
    20   14   37 1
    21   15   16 1
    22   15   17 1
    23   15   38 1
    24   16   21 1
    25   17   18 1
    26   17   19 1
    27   17   39 1
    28   18   40 1
    29   19   20 1
    30   19   21 1
    31   19   41 1
    32   20   42 1
    33   21   22 1
    34   21   43 1
    35   22   23 ar
    36   22   31 ar
    37   23   24 ar
    38   23   44 1
    39   24   25 ar
    40   25   26 ar
    41   25   31 ar
    42   26   27 1
    43   26   28 ar
    44   27   45 1
    45   27   46 1
    46   28   29 ar
    47   29   30 ar
    48   29   47 1
    49   30   31 ar
@<TRIPOS>SUBSTRUCTURE
     1 ACP         1 GROUP 0 A     ****
@<TRIPOS>MOLECULE
[[[5-(6-aminopurin-9-yl)-3,4-dihydroxy-tetrahydrofuran-2-yl]methoxy-oxido-phosphoryl]oxy-hydroxy-phosphoryl]methyl-hydroxy-phosphinate
   47    49     1     0     0
SMALL
USER_CHARGES

@<TRIPOS>ATOM
      1 PG         -4.6892    5.3867    3.5047 P.3       1 ACP         1.3516
      2 O1G        -5.8832    6.2668    3.7928 O.co2     1 ACP        -0.8379
      3 O2G        -4.3602    4.1736    4.3436 O.co2     1 ACP        -0.8379
      4 O3G        -4.6911    4.9701    1.9278 O.3       1 ACP        -0.7980
      5 PB         -1.5227    5.8633    3.1872 P.3       1 ACP         1.7688
      6 O1B        -1.0383    4.8351    4.1651 O.2       1 ACP        -0.9167
      7 O2B        -0.6293    7.2081    3.1176 O.3       1 ACP        -0.8201
      8 C3B        -3.1940    6.4746    3.4919 C.3       1 ACP        -0.6097
      9 PA         -0.4663    4.8326    0.6227 P.3       1 ACP         1.5979
     10 O1A         0.6760    5.8249    0.6052 O.co2     1 ACP        -0.8617
     11 O2A        -1.1288    4.3936   -0.6650 O.co2     1 ACP        -0.8617
     12 O3A        -1.6097    5.3851    1.6478 O.3       1 ACP        -0.8283
     13 O5'         0.0181    3.5132    1.4596 O.3       1 ACP        -0.5783
     14 C5'        -0.8811    2.4285    1.6206 C.3       1 ACP         0.1980
     15 C4'        -0.1994    1.3333    2.4288 C.3       1 ACP         0.0815
     16 O4'        -1.1285    0.2356    2.5840 O.3       1 ACP        -0.4127
     17 C3'         1.0324    0.7610    1.7344 C.3       1 ACP         0.0890
     18 O3'         1.9175    0.2377    2.7247 O.3       1 ACP        -0.6221
     19 C2'         0.4468   -0.3802    0.9263 C.3       1 ACP         0.1067
     20 O2'         1.3993   -1.3703    0.5961 O.3       1 ACP        -0.6053
     21 C1'        -0.6159   -0.9100    1.8769 C.3       1 ACP         0.4223
     22 N9         -1.7127   -1.6108    1.2130 N.pl3     1 ACP        -0.6834
     23 C8         -2.8641   -1.0399    0.7392 C.ar      1 ACP         0.5614
     24 N7         -3.6659   -1.9257    0.1858 N.2       1 ACP        -0.5751
     25 C5         -3.0053   -3.1223    0.3069 C.ar      1 ACP        -0.2117
     26 C6         -3.3321   -4.4178   -0.0813 C.ar      1 ACP         0.7177
     27 N6         -4.5476   -4.6866   -0.7335 N.pl3     1 ACP        -0.9401
     28 N1         -2.4608   -5.4225    0.1773 N.ar      1 ACP        -0.8008
     29 C2         -1.3053   -5.1020    0.8081 C.ar      1 ACP         0.6565
     30 N3         -0.8788   -3.8921    1.2315 N.ar      1 ACP        -0.7061
     31 C4         -1.7870   -2.9477    0.9438 C.ar      1 ACP         0.5715
     32 HOG3       -5.4603    4.4730    1.5763 H         1 ACP         0.4226
     33 HOB2        0.3162    7.1377    2.8662 H         1 ACP         0.4482
     34 H3B1       -3.3985    7.2608    2.7563 H         1 ACP         0.1012
     35 H3B2       -3.1842    6.9527    4.4772 H         1 ACP         0.1012
     36 H5'1       -1.7769    2.7851    2.1387 H         1 ACP         0.0481
     37 H5'2       -1.1653    2.0543    0.6320 H         1 ACP         0.0481
     38 H4'         0.0403    1.7078    3.4343 H         1 ACP         0.0904
     39 H3'         1.5906    1.4859    1.1353 H         1 ACP         0.0809
     40 HO3'        2.6839   -0.1150    2.2479 H         1 ACP         0.4528
     41 H2'        -0.0017    0.0018    0.0005 H         1 ACP         0.0594
     42 HO2'        2.0953   -0.9375    0.0709 H         1 ACP         0.4344
     43 H1'        -0.1998   -1.6319    2.6178 H         1 ACP         0.1127
     44 H8         -3.0609    0.0200    0.8250 H         1 ACP         0.1050
     45 HN61       -5.2046   -3.9433   -0.8775 H         1 ACP         0.4211
     46 HN62       -4.7849   -5.6332   -0.9625 H         1 ACP         0.4211
     47 H2         -0.6318   -5.9307    0.9993 H         1 ACP         0.0375
@<TRIPOS>BOND
     1    1    2 2
     2    1    3 1
     3    1    4 1
     4    1    8 1
     5    4   32 1
     6    5    6 2
     7    5    7 1
     8    5    8 1
     9    5   12 1
    10    7   33 1
    11    8   34 1
    12    8   35 1
    13    9   10 2
    14    9   11 1
    15    9   12 1
    16    9   13 1
    17   13   14 1
    18   14   15 1
    19   14   36 1
    20   14   37 1
    21   15   16 1
    22   15   17 1
    23   15   38 1
    24   16   21 1
    25   17   18 1
    26   17   19 1
    27   17   39 1
    28   18   40 1
    29   19   20 1
    30   19   21 1
    31   19   41 1
    32   20   42 1
    33   21   22 1
    34   21   43 1
    35   22   23 ar
    36   22   31 ar
    37   23   24 ar
    38   23   44 1
    39   24   25 ar
    40   25   26 ar
    41   25   31 ar
    42   26   27 1
    43   26   28 ar
    44   27   45 1
    45   27   46 1
    46   28   29 ar
    47   29   30 ar
    48   29   47 1
    49   30   31 ar
@<TRIPOS>SUBSTRUCTURE
     1 ACP         1 GROUP 0 A     ****
@<TRIPOS>MOLECULE
[[[5-(6-aminopurin-9-yl)-3,4-dihydroxy-tetrahydrofuran-2-yl]methoxy-oxido-phosphoryl]oxy-hydroxy-phosphoryl]methyl-hydroxy-phosphinate
   47    49     1     0     0
SMALL
USER_CHARGES

@<TRIPOS>ATOM
      1 PG         -0.8332    8.7211    1.7430 P.3       1 ACP         1.3516
      2 O1G         0.3953    9.5270    1.3900 O.co2     1 ACP        -0.8379
      3 O2G        -1.9877    9.3092    2.5208 O.co2     1 ACP        -0.8379
      4 O3G        -1.4021    7.9856    0.4030 O.3       1 ACP        -0.7980
      5 PB         -1.3828    5.9471    3.2783 P.3       1 ACP         1.7688
      6 O1B        -2.3943    6.4334    4.2725 O.2       1 ACP        -0.9167
      7 O2B        -0.3908    4.7953    3.8269 O.3       1 ACP        -0.8201
      8 C3B        -0.2613    7.2158    2.6518 C.3       1 ACP        -0.6097
      9 PA         -2.9650    4.0420    1.6588 P.3       1 ACP         1.5979
     10 O1A        -3.0500    3.8015    0.1672 O.co2     1 ACP        -0.8617
     11 O2A        -4.2197    4.2123    2.4872 O.co2     1 ACP        -0.8617
     12 O3A        -1.9798    5.3173    1.9171 O.3       1 ACP        -0.8283
     13 O5'        -2.0402    2.8619    2.3131 O.3       1 ACP        -0.5783
     14 C5'        -0.8811    2.4285    1.6206 C.3       1 ACP         0.1980
     15 C4'        -0.1994    1.3333    2.4288 C.3       1 ACP         0.0815
     16 O4'        -1.1285    0.2356    2.5840 O.3       1 ACP        -0.4127
     17 C3'         1.0324    0.7610    1.7344 C.3       1 ACP         0.0890
     18 O3'         1.9175    0.2377    2.7247 O.3       1 ACP        -0.6221
     19 C2'         0.4468   -0.3802    0.9263 C.3       1 ACP         0.1067
     20 O2'         1.3993   -1.3703    0.5961 O.3       1 ACP        -0.6053
     21 C1'        -0.6159   -0.9100    1.8769 C.3       1 ACP         0.4223
     22 N9         -1.7127   -1.6108    1.2130 N.pl3     1 ACP        -0.6834
     23 C8         -1.7712   -2.9546    0.9544 C.ar      1 ACP         0.5614
     24 N7         -2.8883   -3.2948    0.3462 N.2       1 ACP        -0.5751
     25 C5         -3.5834   -2.1202    0.2043 C.ar      1 ACP        -0.2117
     26 C6         -4.8225   -1.8251   -0.3554 C.ar      1 ACP         0.7177
     27 N6         -5.6154   -2.8395   -0.9189 N.pl3     1 ACP        -0.9401
     28 N1         -5.2589   -0.5425   -0.3507 N.ar      1 ACP        -0.8008
     29 C2         -4.4510    0.3913    0.2069 C.ar      1 ACP         0.6565
     30 N3         -3.2368    0.2296    0.7767 N.ar      1 ACP        -0.7061
     31 C4         -2.8684   -1.0596    0.7376 C.ar      1 ACP         0.5715
     32 HOG3       -1.6769    8.5432   -0.3558 H         1 ACP         0.4226
     33 HOB2       -0.7735    3.9476    4.1384 H         1 ACP         0.4482
     34 H3B1        0.4629    6.7223    1.9938 H         1 ACP         0.1012
     35 H3B2        0.2975    7.6003    3.5117 H         1 ACP         0.1012
     36 H5'1       -1.1770    2.0503    0.6369 H         1 ACP         0.0481
     37 H5'2       -0.2082    3.2815    1.4877 H         1 ACP         0.0481
     38 H4'         0.0403    1.7078    3.4343 H         1 ACP         0.0904
     39 H3'         1.5906    1.4859    1.1353 H         1 ACP         0.0809
     40 HO3'        2.6839   -0.1150    2.2479 H         1 ACP         0.4528
     41 H2'        -0.0017    0.0018    0.0005 H         1 ACP         0.0594
     42 HO2'        2.0953   -0.9375    0.0709 H         1 ACP         0.4344
     43 H1'        -0.1998   -1.6319    2.6178 H         1 ACP         0.1127
     44 H8         -0.9745   -3.6312    1.2318 H         1 ACP         0.1050
     45 HN61       -5.2619   -3.7766   -0.9586 H         1 ACP         0.4211
     46 HN62       -6.4834   -2.5990   -1.3590 H         1 ACP         0.4211
     47 H2         -4.8317    1.4071    0.1930 H         1 ACP         0.0375
@<TRIPOS>BOND
     1    1    2 2
     2    1    3 1
     3    1    4 1
     4    1    8 1
     5    4   32 1
     6    5    6 2
     7    5    7 1
     8    5    8 1
     9    5   12 1
    10    7   33 1
    11    8   34 1
    12    8   35 1
    13    9   10 2
    14    9   11 1
    15    9   12 1
    16    9   13 1
    17   13   14 1
    18   14   15 1
    19   14   36 1
    20   14   37 1
    21   15   16 1
    22   15   17 1
    23   15   38 1
    24   16   21 1
    25   17   18 1
    26   17   19 1
    27   17   39 1
    28   18   40 1
    29   19   20 1
    30   19   21 1
    31   19   41 1
    32   20   42 1
    33   21   22 1
    34   21   43 1
    35   22   23 ar
    36   22   31 ar
    37   23   24 ar
    38   23   44 1
    39   24   25 ar
    40   25   26 ar
    41   25   31 ar
    42   26   27 1
    43   26   28 ar
    44   27   45 1
    45   27   46 1
    46   28   29 ar
    47   29   30 ar
    48   29   47 1
    49   30   31 ar
@<TRIPOS>SUBSTRUCTURE
     1 ACP         1 GROUP 0 A     ****
@<TRIPOS>MOLECULE
[[[5-(6-aminopurin-9-yl)-3,4-dihydroxy-tetrahydrofuran-2-yl]methoxy-oxido-phosphoryl]oxy-hydroxy-phosphoryl]methyl-hydroxy-phosphinate
   47    49     1     0     0
SMALL
USER_CHARGES

@<TRIPOS>ATOM
      1 PG         -4.7084    3.2115   -2.3670 P.3       1 ACP         1.3516
      2 O1G        -4.4430    2.8029   -3.7973 O.co2     1 ACP        -0.8379
      3 O2G        -6.0954    3.5431   -1.8669 O.co2     1 ACP        -0.8379
      4 O3G        -4.0121    2.1356   -1.3581 O.3       1 ACP        -0.7980
      5 PB         -3.5941    5.5018   -0.4006 P.3       1 ACP         1.7688
      6 O1B        -4.9043    6.0916    0.0280 O.2       1 ACP        -0.9167
      7 O2B        -2.3864    6.5656   -0.5480 O.3       1 ACP        -0.8201
      8 C3B        -3.6241    4.6634   -1.9993 C.3       1 ACP        -0.6097
      9 PA         -2.5403    4.4097    2.1396 P.3       1 ACP         1.5979
     10 O1A        -3.7850    4.5996    2.9788 O.co2     1 ACP        -0.8617
     11 O2A        -1.3558    5.3389    2.2922 O.co2     1 ACP        -0.8617
     12 O3A        -2.9826    4.3653    0.5693 O.3       1 ACP        -0.8283
     13 O5'        -2.0402    2.8619    2.3131 O.3       1 ACP        -0.5783
     14 C5'        -0.8811    2.4285    1.6206 C.3       1 ACP         0.1980
     15 C4'        -0.1994    1.3333    2.4288 C.3       1 ACP         0.0815
     16 O4'        -1.1285    0.2356    2.5840 O.3       1 ACP        -0.4127
     17 C3'         1.0324    0.7610    1.7344 C.3       1 ACP         0.0890
     18 O3'         1.9175    0.2377    2.7247 O.3       1 ACP        -0.6221
     19 C2'         0.4468   -0.3802    0.9263 C.3       1 ACP         0.1067
     20 O2'         1.3993   -1.3703    0.5961 O.3       1 ACP        -0.6053
     21 C1'        -0.6159   -0.9100    1.8769 C.3       1 ACP         0.4223
     22 N9         -1.7127   -1.6108    1.2130 N.pl3     1 ACP        -0.6834
     23 C8         -2.8641   -1.0399    0.7392 C.ar      1 ACP         0.5614
     24 N7         -3.6659   -1.9257    0.1858 N.2       1 ACP        -0.5751
     25 C5         -3.0053   -3.1223    0.3069 C.ar      1 ACP        -0.2117
     26 C6         -3.3321   -4.4178   -0.0813 C.ar      1 ACP         0.7177
     27 N6         -4.5476   -4.6866   -0.7335 N.pl3     1 ACP        -0.9401
     28 N1         -2.4608   -5.4225    0.1773 N.ar      1 ACP        -0.8008
     29 C2         -1.3053   -5.1020    0.8081 C.ar      1 ACP         0.6565
     30 N3         -0.8788   -3.8921    1.2315 N.ar      1 ACP        -0.7061
     31 C4         -1.7870   -2.9477    0.9438 C.ar      1 ACP         0.5715
     32 HOG3       -4.2940    1.1974   -1.4079 H         1 ACP         0.4226
     33 HOB2       -2.1127    7.0854    0.2375 H         1 ACP         0.4482
     34 H3B1       -2.6009    4.3412   -2.2237 H         1 ACP         0.1012
     35 H3B2       -3.8947    5.4150   -2.7486 H         1 ACP         0.1012
     36 H5'1       -1.1770    2.0503    0.6369 H         1 ACP         0.0481
     37 H5'2       -0.2082    3.2815    1.4877 H         1 ACP         0.0481
     38 H4'         0.0403    1.7078    3.4343 H         1 ACP         0.0904
     39 H3'         1.5906    1.4859    1.1353 H         1 ACP         0.0809
     40 HO3'        2.6839   -0.1150    2.2479 H         1 ACP         0.4528
     41 H2'        -0.0017    0.0018    0.0005 H         1 ACP         0.0594
     42 HO2'        2.0953   -0.9375    0.0709 H         1 ACP         0.4344
     43 H1'        -0.1998   -1.6319    2.6178 H         1 ACP         0.1127
     44 H8         -3.0609    0.0200    0.8250 H         1 ACP         0.1050
     45 HN61       -5.2046   -3.9433   -0.8775 H         1 ACP         0.4211
     46 HN62       -4.7849   -5.6332   -0.9625 H         1 ACP         0.4211
     47 H2         -0.6318   -5.9307    0.9993 H         1 ACP         0.0375
@<TRIPOS>BOND
     1    1    2 2
     2    1    3 1
     3    1    4 1
     4    1    8 1
     5    4   32 1
     6    5    6 2
     7    5    7 1
     8    5    8 1
     9    5   12 1
    10    7   33 1
    11    8   34 1
    12    8   35 1
    13    9   10 2
    14    9   11 1
    15    9   12 1
    16    9   13 1
    17   13   14 1
    18   14   15 1
    19   14   36 1
    20   14   37 1
    21   15   16 1
    22   15   17 1
    23   15   38 1
    24   16   21 1
    25   17   18 1
    26   17   19 1
    27   17   39 1
    28   18   40 1
    29   19   20 1
    30   19   21 1
    31   19   41 1
    32   20   42 1
    33   21   22 1
    34   21   43 1
    35   22   23 ar
    36   22   31 ar
    37   23   24 ar
    38   23   44 1
    39   24   25 ar
    40   25   26 ar
    41   25   31 ar
    42   26   27 1
    43   26   28 ar
    44   27   45 1
    45   27   46 1
    46   28   29 ar
    47   29   30 ar
    48   29   47 1
    49   30   31 ar
@<TRIPOS>SUBSTRUCTURE
     1 ACP         1 GROUP 0 A     ****
@<TRIPOS>MOLECULE
[[[5-(6-aminopurin-9-yl)-3,4-dihydroxy-tetrahydrofuran-2-yl]methoxy-oxido-phosphoryl]oxy-hydroxy-phosphoryl]methyl-hydroxy-phosphinate
   47    49     1     0     0
SMALL
USER_CHARGES

@<TRIPOS>ATOM
      1 PG          1.3334    2.7367   -3.4718 P.3       1 ACP         1.3516
      2 O1G         1.3207    1.6929   -4.5643 O.co2     1 ACP        -0.8379
      3 O2G         1.6829    2.4018   -2.0402 O.co2     1 ACP        -0.8379
      4 O3G         2.2153    4.0195   -3.9585 O.3       1 ACP        -0.7980
      5 PB         -0.7882    4.8634   -2.3185 P.3       1 ACP         1.7688
      6 O1B        -2.1864    5.3807   -2.4784 O.2       1 ACP        -0.9167
      7 O2B         0.3725    5.9690   -2.5236 O.3       1 ACP        -0.8201
      8 C3B        -0.3301    3.5439   -3.4627 C.3       1 ACP        -0.6097
      9 PA         -0.4663    4.8326    0.6227 P.3       1 ACP         1.5979
     10 O1A        -1.9050    5.1225    0.9915 O.co2     1 ACP        -0.8617
     11 O2A         0.5913    5.9095    0.7295 O.co2     1 ACP        -0.8617
     12 O3A        -0.4395    4.2082   -0.8850 O.3       1 ACP        -0.8283
     13 O5'         0.0181    3.5132    1.4596 O.3       1 ACP        -0.5783
     14 C5'        -0.8811    2.4285    1.6206 C.3       1 ACP         0.1980
     15 C4'        -0.1994    1.3333    2.4288 C.3       1 ACP         0.0815
     16 O4'        -1.1285    0.2356    2.5840 O.3       1 ACP        -0.4127
     17 C3'         1.0324    0.7610    1.7344 C.3       1 ACP         0.0890
     18 O3'         1.9175    0.2377    2.7247 O.3       1 ACP        -0.6221
     19 C2'         0.4468   -0.3802    0.9263 C.3       1 ACP         0.1067
     20 O2'         1.3993   -1.3703    0.5961 O.3       1 ACP        -0.6053
     21 C1'        -0.6159   -0.9100    1.8769 C.3       1 ACP         0.4223
     22 N9         -1.7127   -1.6108    1.2130 N.pl3     1 ACP        -0.6834
     23 C8         -2.8641   -1.0399    0.7392 C.ar      1 ACP         0.5614
     24 N7         -3.6659   -1.9257    0.1858 N.2       1 ACP        -0.5751
     25 C5         -3.0053   -3.1223    0.3069 C.ar      1 ACP        -0.2117
     26 C6         -3.3321   -4.4178   -0.0813 C.ar      1 ACP         0.7177
     27 N6         -4.5476   -4.6866   -0.7335 N.pl3     1 ACP        -0.9401
     28 N1         -2.4608   -5.4225    0.1773 N.ar      1 ACP        -0.8008
     29 C2         -1.3053   -5.1020    0.8081 C.ar      1 ACP         0.6565
     30 N3         -0.8788   -3.8921    1.2315 N.ar      1 ACP        -0.7061
     31 C4         -1.7870   -2.9477    0.9438 C.ar      1 ACP         0.5715
     32 HOG3        3.1599    3.8796   -4.1833 H         1 ACP         0.4226
     33 HOB2        0.3915    6.7527   -1.9341 H         1 ACP         0.4482
     34 H3B1       -0.4906    3.9173   -4.4804 H         1 ACP         0.1012
     35 H3B2       -1.0405    2.7251   -3.3062 H         1 ACP         0.1012
     36 H5'1       -1.7769    2.7851    2.1387 H         1 ACP         0.0481
     37 H5'2       -1.1653    2.0543    0.6320 H         1 ACP         0.0481
     38 H4'         0.0403    1.7078    3.4343 H         1 ACP         0.0904
     39 H3'         1.5906    1.4859    1.1353 H         1 ACP         0.0809
     40 HO3'        2.6839   -0.1150    2.2479 H         1 ACP         0.4528
     41 H2'        -0.0017    0.0018    0.0005 H         1 ACP         0.0594
     42 HO2'        2.0953   -0.9375    0.0709 H         1 ACP         0.4344
     43 H1'        -0.1998   -1.6319    2.6178 H         1 ACP         0.1127
     44 H8         -3.0609    0.0200    0.8250 H         1 ACP         0.1050
     45 HN61       -5.2046   -3.9433   -0.8775 H         1 ACP         0.4211
     46 HN62       -4.7849   -5.6332   -0.9625 H         1 ACP         0.4211
     47 H2         -0.6318   -5.9307    0.9993 H         1 ACP         0.0375
@<TRIPOS>BOND
     1    1    2 2
     2    1    3 1
     3    1    4 1
     4    1    8 1
     5    4   32 1
     6    5    6 2
     7    5    7 1
     8    5    8 1
     9    5   12 1
    10    7   33 1
    11    8   34 1
    12    8   35 1
    13    9   10 2
    14    9   11 1
    15    9   12 1
    16    9   13 1
    17   13   14 1
    18   14   15 1
    19   14   36 1
    20   14   37 1
    21   15   16 1
    22   15   17 1
    23   15   38 1
    24   16   21 1
    25   17   18 1
    26   17   19 1
    27   17   39 1
    28   18   40 1
    29   19   20 1
    30   19   21 1
    31   19   41 1
    32   20   42 1
    33   21   22 1
    34   21   43 1
    35   22   23 ar
    36   22   31 ar
    37   23   24 ar
    38   23   44 1
    39   24   25 ar
    40   25   26 ar
    41   25   31 ar
    42   26   27 1
    43   26   28 ar
    44   27   45 1
    45   27   46 1
    46   28   29 ar
    47   29   30 ar
    48   29   47 1
    49   30   31 ar
@<TRIPOS>SUBSTRUCTURE
     1 ACP         1 GROUP 0 A     ****
@<TRIPOS>MOLECULE
[[[5-(6-aminopurin-9-yl)-3,4-dihydroxy-tetrahydrofuran-2-yl]methoxy-oxido-phosphoryl]oxy-hydroxy-phosphoryl]methyl-hydroxy-phosphinate
   47    49     1     0     0
SMALL
USER_CHARGES

@<TRIPOS>ATOM
      1 PG         -0.2561    7.3544    4.1260 P.3       1 ACP         1.3516
      2 O1G         1.0219    8.1158    4.3911 O.co2     1 ACP        -0.8379
      3 O2G        -0.3913    5.8782    4.4199 O.co2     1 ACP        -0.8379
      4 O3G        -1.5119    8.1558    4.7900 O.3       1 ACP        -0.7980
      5 PB         -2.1462    6.8838    1.5647 P.3       1 ACP         1.7688
      6 O1B        -2.3130    7.2132    0.1115 O.2       1 ACP        -0.9167
      7 O2B        -3.3655    7.3593    2.5129 O.3       1 ACP        -0.8201
      8 C3B        -0.6884    7.6076    2.3461 C.3       1 ACP        -0.6097
      9 PA         -2.9650    4.0420    1.6588 P.3       1 ACP         1.5979
     10 O1A        -3.0500    3.8015    0.1672 O.co2     1 ACP        -0.8617
     11 O2A        -4.2197    4.2123    2.4872 O.co2     1 ACP        -0.8617
     12 O3A        -1.9798    5.3173    1.9171 O.3       1 ACP        -0.8283
     13 O5'        -2.0402    2.8619    2.3131 O.3       1 ACP        -0.5783
     14 C5'        -0.8811    2.4285    1.6206 C.3       1 ACP         0.1980
     15 C4'        -0.1994    1.3333    2.4288 C.3       1 ACP         0.0815
     16 O4'        -1.1285    0.2356    2.5840 O.3       1 ACP        -0.4127
     17 C3'         1.0324    0.7610    1.7344 C.3       1 ACP         0.0890
     18 O3'         1.9175    0.2377    2.7247 O.3       1 ACP        -0.6221
     19 C2'         0.4468   -0.3802    0.9263 C.3       1 ACP         0.1067
     20 O2'         1.3993   -1.3703    0.5961 O.3       1 ACP        -0.6053
     21 C1'        -0.6159   -0.9100    1.8769 C.3       1 ACP         0.4223
     22 N9         -1.7127   -1.6108    1.2130 N.pl3     1 ACP        -0.6834
     23 C8         -2.8641   -1.0399    0.7392 C.ar      1 ACP         0.5614
     24 N7         -3.6659   -1.9257    0.1858 N.2       1 ACP        -0.5751
     25 C5         -3.0053   -3.1223    0.3069 C.ar      1 ACP        -0.2117
     26 C6         -3.3321   -4.4178   -0.0813 C.ar      1 ACP         0.7177
     27 N6         -4.5476   -4.6866   -0.7335 N.pl3     1 ACP        -0.9401
     28 N1         -2.4608   -5.4225    0.1773 N.ar      1 ACP        -0.8008
     29 C2         -1.3053   -5.1020    0.8081 C.ar      1 ACP         0.6565
     30 N3         -0.8788   -3.8921    1.2315 N.ar      1 ACP        -0.7061
     31 C4         -1.7870   -2.9477    0.9438 C.ar      1 ACP         0.5715
     32 HOG3       -1.5082    8.3110    5.7586 H         1 ACP         0.4226
     33 HOB2       -4.2654    7.0090    2.3410 H         1 ACP         0.4482
     34 H3B1       -0.7374    8.6924    2.1983 H         1 ACP         0.1012
     35 H3B2        0.1836    7.2477    1.7897 H         1 ACP         0.1012
     36 H5'1       -1.1770    2.0503    0.6369 H         1 ACP         0.0481
     37 H5'2       -0.2082    3.2815    1.4877 H         1 ACP         0.0481
     38 H4'         0.0403    1.7078    3.4343 H         1 ACP         0.0904
     39 H3'         1.5906    1.4859    1.1353 H         1 ACP         0.0809
     40 HO3'        2.6839   -0.1150    2.2479 H         1 ACP         0.4528
     41 H2'        -0.0017    0.0018    0.0005 H         1 ACP         0.0594
     42 HO2'        2.0953   -0.9375    0.0709 H         1 ACP         0.4344
     43 H1'        -0.1998   -1.6319    2.6178 H         1 ACP         0.1127
     44 H8         -3.0609    0.0200    0.8250 H         1 ACP         0.1050
     45 HN61       -5.2046   -3.9433   -0.8775 H         1 ACP         0.4211
     46 HN62       -4.7849   -5.6332   -0.9625 H         1 ACP         0.4211
     47 H2         -0.6318   -5.9307    0.9993 H         1 ACP         0.0375
@<TRIPOS>BOND
     1    1    2 2
     2    1    3 1
     3    1    4 1
     4    1    8 1
     5    4   32 1
     6    5    6 2
     7    5    7 1
     8    5    8 1
     9    5   12 1
    10    7   33 1
    11    8   34 1
    12    8   35 1
    13    9   10 2
    14    9   11 1
    15    9   12 1
    16    9   13 1
    17   13   14 1
    18   14   15 1
    19   14   36 1
    20   14   37 1
    21   15   16 1
    22   15   17 1
    23   15   38 1
    24   16   21 1
    25   17   18 1
    26   17   19 1
    27   17   39 1
    28   18   40 1
    29   19   20 1
    30   19   21 1
    31   19   41 1
    32   20   42 1
    33   21   22 1
    34   21   43 1
    35   22   23 ar
    36   22   31 ar
    37   23   24 ar
    38   23   44 1
    39   24   25 ar
    40   25   26 ar
    41   25   31 ar
    42   26   27 1
    43   26   28 ar
    44   27   45 1
    45   27   46 1
    46   28   29 ar
    47   29   30 ar
    48   29   47 1
    49   30   31 ar
@<TRIPOS>SUBSTRUCTURE
     1 ACP         1 GROUP 0 A     ****
@<TRIPOS>MOLECULE
[[[5-(6-aminopurin-9-yl)-3,4-dihydroxy-tetrahydrofuran-2-yl]methoxy-oxido-phosphoryl]oxy-hydroxy-phosphoryl]methyl-hydroxy-phosphinate
   47    49     1     0     0
SMALL
USER_CHARGES

@<TRIPOS>ATOM
      1 PG         -6.8576    2.6679    1.1403 P.3       1 ACP         1.3516
      2 O1G        -8.1339    3.2604    1.6911 O.co2     1 ACP        -0.8379
      3 O2G        -5.7733    2.1142    2.0355 O.co2     1 ACP        -0.8379
      4 O3G        -7.2220    1.5711   -0.0105 O.3       1 ACP        -0.7980
      5 PB         -4.5275    3.6905   -0.8292 P.3       1 ACP         1.7688
      6 O1B        -4.0715    4.8550   -1.6564 O.2       1 ACP        -0.9167
      7 O2B        -4.7783    2.3259   -1.6578 O.3       1 ACP        -0.8201
      8 C3B        -6.0811    3.9470    0.0541 C.3       1 ACP        -0.6097
      9 PA         -2.9650    4.0420    1.6588 P.3       1 ACP         1.5979
     10 O1A        -4.1237    4.3063    2.5955 O.co2     1 ACP        -0.8617
     11 O2A        -2.0759    5.1733    1.1904 O.co2     1 ACP        -0.8617
     12 O3A        -3.5314    3.2366    0.3573 O.3       1 ACP        -0.8283
     13 O5'        -2.0402    2.8619    2.3131 O.3       1 ACP        -0.5783
     14 C5'        -0.8811    2.4285    1.6206 C.3       1 ACP         0.1980
     15 C4'        -0.1994    1.3333    2.4288 C.3       1 ACP         0.0815
     16 O4'        -1.1285    0.2356    2.5840 O.3       1 ACP        -0.4127
     17 C3'         1.0324    0.7610    1.7344 C.3       1 ACP         0.0890
     18 O3'         1.9175    0.2377    2.7247 O.3       1 ACP        -0.6221
     19 C2'         0.4468   -0.3802    0.9263 C.3       1 ACP         0.1067
     20 O2'         1.3993   -1.3703    0.5961 O.3       1 ACP        -0.6053
     21 C1'        -0.6159   -0.9100    1.8769 C.3       1 ACP         0.4223
     22 N9         -1.7127   -1.6108    1.2130 N.pl3     1 ACP        -0.6834
     23 C8         -2.8641   -1.0399    0.7392 C.ar      1 ACP         0.5614
     24 N7         -3.6659   -1.9257    0.1858 N.2       1 ACP        -0.5751
     25 C5         -3.0053   -3.1223    0.3069 C.ar      1 ACP        -0.2117
     26 C6         -3.3321   -4.4178   -0.0813 C.ar      1 ACP         0.7177
     27 N6         -4.5476   -4.6866   -0.7335 N.pl3     1 ACP        -0.9401
     28 N1         -2.4608   -5.4225    0.1773 N.ar      1 ACP        -0.8008
     29 C2         -1.3053   -5.1020    0.8081 C.ar      1 ACP         0.6565
     30 N3         -0.8788   -3.8921    1.2315 N.ar      1 ACP        -0.7061
     31 C4         -1.7870   -2.9477    0.9438 C.ar      1 ACP         0.5715
     32 HOG3       -7.7714    0.7973    0.2380 H         1 ACP         0.4226
     33 HOB2       -4.0314    1.9264   -2.1525 H         1 ACP         0.4482
     34 H3B1       -6.8424    4.2176   -0.6863 H         1 ACP         0.1012
     35 H3B2       -5.9398    4.8192    0.7014 H         1 ACP         0.1012
     36 H5'1       -1.1770    2.0503    0.6369 H         1 ACP         0.0481
     37 H5'2       -0.2082    3.2815    1.4877 H         1 ACP         0.0481
     38 H4'         0.0403    1.7078    3.4343 H         1 ACP         0.0904
     39 H3'         1.5906    1.4859    1.1353 H         1 ACP         0.0809
     40 HO3'        2.6839   -0.1150    2.2479 H         1 ACP         0.4528
     41 H2'        -0.0017    0.0018    0.0005 H         1 ACP         0.0594
     42 HO2'        2.0953   -0.9375    0.0709 H         1 ACP         0.4344
     43 H1'        -0.1998   -1.6319    2.6178 H         1 ACP         0.1127
     44 H8         -3.0609    0.0200    0.8250 H         1 ACP         0.1050
     45 HN61       -5.2046   -3.9433   -0.8775 H         1 ACP         0.4211
     46 HN62       -4.7849   -5.6332   -0.9625 H         1 ACP         0.4211
     47 H2         -0.6318   -5.9307    0.9993 H         1 ACP         0.0375
@<TRIPOS>BOND
     1    1    2 2
     2    1    3 1
     3    1    4 1
     4    1    8 1
     5    4   32 1
     6    5    6 2
     7    5    7 1
     8    5    8 1
     9    5   12 1
    10    7   33 1
    11    8   34 1
    12    8   35 1
    13    9   10 2
    14    9   11 1
    15    9   12 1
    16    9   13 1
    17   13   14 1
    18   14   15 1
    19   14   36 1
    20   14   37 1
    21   15   16 1
    22   15   17 1
    23   15   38 1
    24   16   21 1
    25   17   18 1
    26   17   19 1
    27   17   39 1
    28   18   40 1
    29   19   20 1
    30   19   21 1
    31   19   41 1
    32   20   42 1
    33   21   22 1
    34   21   43 1
    35   22   23 ar
    36   22   31 ar
    37   23   24 ar
    38   23   44 1
    39   24   25 ar
    40   25   26 ar
    41   25   31 ar
    42   26   27 1
    43   26   28 ar
    44   27   45 1
    45   27   46 1
    46   28   29 ar
    47   29   30 ar
    48   29   47 1
    49   30   31 ar
@<TRIPOS>SUBSTRUCTURE
     1 ACP         1 GROUP 0 A     ****
@<TRIPOS>MOLECULE
[[[5-(6-aminopurin-9-yl)-3,4-dihydroxy-tetrahydrofuran-2-yl]methoxy-oxido-phosphoryl]oxy-hydroxy-phosphoryl]methyl-hydroxy-phosphinate
   47    49     1     0     0
SMALL
USER_CHARGES

@<TRIPOS>ATOM
      1 PG         -4.6892    5.3867    3.5047 P.3       1 ACP         1.3516
      2 O1G        -5.8832    6.2668    3.7928 O.co2     1 ACP        -0.8379
      3 O2G        -4.3602    4.1736    4.3436 O.co2     1 ACP        -0.8379
      4 O3G        -4.6911    4.9701    1.9278 O.3       1 ACP        -0.7980
      5 PB         -1.5227    5.8633    3.1872 P.3       1 ACP         1.7688
      6 O1B        -1.0383    4.8351    4.1651 O.2       1 ACP        -0.9167
      7 O2B        -0.6293    7.2081    3.1176 O.3       1 ACP        -0.8201
      8 C3B        -3.1940    6.4746    3.4919 C.3       1 ACP        -0.6097
      9 PA         -0.4663    4.8326    0.6227 P.3       1 ACP         1.5979
     10 O1A         0.6760    5.8249    0.6052 O.co2     1 ACP        -0.8617
     11 O2A        -1.1288    4.3936   -0.6650 O.co2     1 ACP        -0.8617
     12 O3A        -1.6097    5.3851    1.6478 O.3       1 ACP        -0.8283
     13 O5'         0.0181    3.5132    1.4596 O.3       1 ACP        -0.5783
     14 C5'        -0.8811    2.4285    1.6206 C.3       1 ACP         0.1980
     15 C4'        -0.1994    1.3333    2.4288 C.3       1 ACP         0.0815
     16 O4'        -1.1285    0.2356    2.5840 O.3       1 ACP        -0.4127
     17 C3'         1.0324    0.7610    1.7344 C.3       1 ACP         0.0890
     18 O3'         1.9175    0.2377    2.7247 O.3       1 ACP        -0.6221
     19 C2'         0.4468   -0.3802    0.9263 C.3       1 ACP         0.1067
     20 O2'         1.3993   -1.3703    0.5961 O.3       1 ACP        -0.6053
     21 C1'        -0.6159   -0.9100    1.8769 C.3       1 ACP         0.4223
     22 N9         -1.7127   -1.6108    1.2130 N.pl3     1 ACP        -0.6834
     23 C8         -1.7712   -2.9546    0.9544 C.ar      1 ACP         0.5614
     24 N7         -2.8883   -3.2948    0.3462 N.2       1 ACP        -0.5751
     25 C5         -3.5834   -2.1202    0.2043 C.ar      1 ACP        -0.2117
     26 C6         -4.8225   -1.8251   -0.3554 C.ar      1 ACP         0.7177
     27 N6         -5.6154   -2.8395   -0.9189 N.pl3     1 ACP        -0.9401
     28 N1         -5.2589   -0.5425   -0.3507 N.ar      1 ACP        -0.8008
     29 C2         -4.4510    0.3913    0.2069 C.ar      1 ACP         0.6565
     30 N3         -3.2368    0.2296    0.7767 N.ar      1 ACP        -0.7061
     31 C4         -2.8684   -1.0596    0.7376 C.ar      1 ACP         0.5715
     32 HOG3       -5.4603    4.4730    1.5763 H         1 ACP         0.4226
     33 HOB2        0.3162    7.1377    2.8662 H         1 ACP         0.4482
     34 H3B1       -3.3985    7.2608    2.7563 H         1 ACP         0.1012
     35 H3B2       -3.1842    6.9527    4.4772 H         1 ACP         0.1012
     36 H5'1       -1.7769    2.7851    2.1387 H         1 ACP         0.0481
     37 H5'2       -1.1653    2.0543    0.6320 H         1 ACP         0.0481
     38 H4'         0.0403    1.7078    3.4343 H         1 ACP         0.0904
     39 H3'         1.5906    1.4859    1.1353 H         1 ACP         0.0809
     40 HO3'        2.6839   -0.1150    2.2479 H         1 ACP         0.4528
     41 H2'        -0.0017    0.0018    0.0005 H         1 ACP         0.0594
     42 HO2'        2.0953   -0.9375    0.0709 H         1 ACP         0.4344
     43 H1'        -0.1998   -1.6319    2.6178 H         1 ACP         0.1127
     44 H8         -0.9745   -3.6312    1.2318 H         1 ACP         0.1050
     45 HN61       -5.2619   -3.7766   -0.9586 H         1 ACP         0.4211
     46 HN62       -6.4834   -2.5990   -1.3590 H         1 ACP         0.4211
     47 H2         -4.8317    1.4071    0.1930 H         1 ACP         0.0375
@<TRIPOS>BOND
     1    1    2 2
     2    1    3 1
     3    1    4 1
     4    1    8 1
     5    4   32 1
     6    5    6 2
     7    5    7 1
     8    5    8 1
     9    5   12 1
    10    7   33 1
    11    8   34 1
    12    8   35 1
    13    9   10 2
    14    9   11 1
    15    9   12 1
    16    9   13 1
    17   13   14 1
    18   14   15 1
    19   14   36 1
    20   14   37 1
    21   15   16 1
    22   15   17 1
    23   15   38 1
    24   16   21 1
    25   17   18 1
    26   17   19 1
    27   17   39 1
    28   18   40 1
    29   19   20 1
    30   19   21 1
    31   19   41 1
    32   20   42 1
    33   21   22 1
    34   21   43 1
    35   22   23 ar
    36   22   31 ar
    37   23   24 ar
    38   23   44 1
    39   24   25 ar
    40   25   26 ar
    41   25   31 ar
    42   26   27 1
    43   26   28 ar
    44   27   45 1
    45   27   46 1
    46   28   29 ar
    47   29   30 ar
    48   29   47 1
    49   30   31 ar
@<TRIPOS>SUBSTRUCTURE
     1 ACP         1 GROUP 0 A     ****
@<TRIPOS>MOLECULE
[[[5-(6-aminopurin-9-yl)-3,4-dihydroxy-tetrahydrofuran-2-yl]methoxy-oxido-phosphoryl]oxy-hydroxy-phosphoryl]methyl-hydroxy-phosphinate
   47    49     1     0     0
SMALL
USER_CHARGES

@<TRIPOS>ATOM
      1 PG         -0.2691    2.1273   -3.5052 P.3       1 ACP         1.3516
      2 O1G        -0.7601    1.0244   -4.4139 O.co2     1 ACP        -0.8379
      3 O2G         0.4154    1.8425   -2.1883 O.co2     1 ACP        -0.8379
      4 O3G         0.6316    3.1788   -4.3672 O.3       1 ACP        -0.7980
      5 PB         -1.6038    4.6990   -2.1056 P.3       1 ACP         1.7688
      6 O1B        -2.8875    5.4581   -1.9507 O.2       1 ACP        -0.9167
      7 O2B        -0.3879    5.5458   -2.7507 O.3       1 ACP        -0.8201
      8 C3B        -1.7088    3.2332   -3.1545 C.3       1 ACP        -0.6097
      9 PA         -0.4663    4.8326    0.6227 P.3       1 ACP         1.5979
     10 O1A        -1.6742    5.4170    1.3223 O.co2     1 ACP        -0.8617
     11 O2A         0.7364    5.6947    0.3068 O.co2     1 ACP        -0.8617
     12 O3A        -0.9709    4.1011   -0.7462 O.3       1 ACP        -0.8283
     13 O5'         0.0181    3.5132    1.4596 O.3       1 ACP        -0.5783
     14 C5'        -0.8811    2.4285    1.6206 C.3       1 ACP         0.1980
     15 C4'        -0.1994    1.3333    2.4288 C.3       1 ACP         0.0815
     16 O4'        -1.1285    0.2356    2.5840 O.3       1 ACP        -0.4127
     17 C3'         1.0324    0.7610    1.7344 C.3       1 ACP         0.0890
     18 O3'         1.9175    0.2377    2.7247 O.3       1 ACP        -0.6221
     19 C2'         0.4468   -0.3802    0.9263 C.3       1 ACP         0.1067
     20 O2'         1.3993   -1.3703    0.5961 O.3       1 ACP        -0.6053
     21 C1'        -0.6159   -0.9100    1.8769 C.3       1 ACP         0.4223
     22 N9         -1.7127   -1.6108    1.2130 N.pl3     1 ACP        -0.6834
     23 C8         -1.7712   -2.9546    0.9544 C.ar      1 ACP         0.5614
     24 N7         -2.8883   -3.2948    0.3462 N.2       1 ACP        -0.5751
     25 C5         -3.5834   -2.1202    0.2043 C.ar      1 ACP        -0.2117
     26 C6         -4.8225   -1.8251   -0.3554 C.ar      1 ACP         0.7177
     27 N6         -5.6154   -2.8395   -0.9189 N.pl3     1 ACP        -0.9401
     28 N1         -5.2589   -0.5425   -0.3507 N.ar      1 ACP        -0.8008
     29 C2         -4.4510    0.3913    0.2069 C.ar      1 ACP         0.6565
     30 N3         -3.2368    0.2296    0.7767 N.ar      1 ACP        -0.7061
     31 C4         -2.8684   -1.0596    0.7376 C.ar      1 ACP         0.5715
     32 HOG3        1.4376    2.8458   -4.8163 H         1 ACP         0.4226
     33 HOB2       -0.0760    6.3544   -2.2913 H         1 ACP         0.4482
     34 H3B1       -2.0906    3.5514   -4.1312 H         1 ACP         0.1012
     35 H3B2       -2.4671    2.5782   -2.7123 H         1 ACP         0.1012
     36 H5'1       -1.7769    2.7851    2.1387 H         1 ACP         0.0481
     37 H5'2       -1.1653    2.0543    0.6320 H         1 ACP         0.0481
     38 H4'         0.0403    1.7078    3.4343 H         1 ACP         0.0904
     39 H3'         1.5906    1.4859    1.1353 H         1 ACP         0.0809
     40 HO3'        2.6839   -0.1150    2.2479 H         1 ACP         0.4528
     41 H2'        -0.0017    0.0018    0.0005 H         1 ACP         0.0594
     42 HO2'        2.0953   -0.9375    0.0709 H         1 ACP         0.4344
     43 H1'        -0.1998   -1.6319    2.6178 H         1 ACP         0.1127
     44 H8         -0.9745   -3.6312    1.2318 H         1 ACP         0.1050
     45 HN61       -5.2619   -3.7766   -0.9586 H         1 ACP         0.4211
     46 HN62       -6.4834   -2.5990   -1.3590 H         1 ACP         0.4211
     47 H2         -4.8317    1.4071    0.1930 H         1 ACP         0.0375
@<TRIPOS>BOND
     1    1    2 2
     2    1    3 1
     3    1    4 1
     4    1    8 1
     5    4   32 1
     6    5    6 2
     7    5    7 1
     8    5    8 1
     9    5   12 1
    10    7   33 1
    11    8   34 1
    12    8   35 1
    13    9   10 2
    14    9   11 1
    15    9   12 1
    16    9   13 1
    17   13   14 1
    18   14   15 1
    19   14   36 1
    20   14   37 1
    21   15   16 1
    22   15   17 1
    23   15   38 1
    24   16   21 1
    25   17   18 1
    26   17   19 1
    27   17   39 1
    28   18   40 1
    29   19   20 1
    30   19   21 1
    31   19   41 1
    32   20   42 1
    33   21   22 1
    34   21   43 1
    35   22   23 ar
    36   22   31 ar
    37   23   24 ar
    38   23   44 1
    39   24   25 ar
    40   25   26 ar
    41   25   31 ar
    42   26   27 1
    43   26   28 ar
    44   27   45 1
    45   27   46 1
    46   28   29 ar
    47   29   30 ar
    48   29   47 1
    49   30   31 ar
@<TRIPOS>SUBSTRUCTURE
     1 ACP         1 GROUP 0 A     ****
@<TRIPOS>MOLECULE
[[[5-(6-aminopurin-9-yl)-3,4-dihydroxy-tetrahydrofuran-2-yl]methoxy-oxido-phosphoryl]oxy-hydroxy-phosphoryl]methyl-hydroxy-phosphinate
   47    49     1     0     0
SMALL
USER_CHARGES

@<TRIPOS>ATOM
      1 PG         -0.8332    8.7211    1.7430 P.3       1 ACP         1.3516
      2 O1G         0.3953    9.5270    1.3900 O.co2     1 ACP        -0.8379
      3 O2G        -1.9877    9.3092    2.5208 O.co2     1 ACP        -0.8379
      4 O3G        -1.4021    7.9856    0.4030 O.3       1 ACP        -0.7980
      5 PB         -1.3828    5.9471    3.2783 P.3       1 ACP         1.7688
      6 O1B        -2.3943    6.4334    4.2725 O.2       1 ACP        -0.9167
      7 O2B        -0.3908    4.7953    3.8269 O.3       1 ACP        -0.8201
      8 C3B        -0.2613    7.2158    2.6518 C.3       1 ACP        -0.6097
      9 PA         -2.9650    4.0420    1.6588 P.3       1 ACP         1.5979
     10 O1A        -3.0500    3.8015    0.1672 O.co2     1 ACP        -0.8617
     11 O2A        -4.2197    4.2123    2.4872 O.co2     1 ACP        -0.8617
     12 O3A        -1.9798    5.3173    1.9171 O.3       1 ACP        -0.8283
     13 O5'        -2.0402    2.8619    2.3131 O.3       1 ACP        -0.5783
     14 C5'        -0.8811    2.4285    1.6206 C.3       1 ACP         0.1980
     15 C4'        -0.1994    1.3333    2.4288 C.3       1 ACP         0.0815
     16 O4'        -1.1285    0.2356    2.5840 O.3       1 ACP        -0.4127
     17 C3'         1.0324    0.7610    1.7344 C.3       1 ACP         0.0890
     18 O3'         1.9175    0.2377    2.7247 O.3       1 ACP        -0.6221
     19 C2'         0.4468   -0.3802    0.9263 C.3       1 ACP         0.1067
     20 O2'         1.3993   -1.3703    0.5961 O.3       1 ACP        -0.6053
     21 C1'        -0.6159   -0.9100    1.8769 C.3       1 ACP         0.4223
     22 N9         -1.7127   -1.6108    1.2130 N.pl3     1 ACP        -0.6834
     23 C8         -2.8641   -1.0399    0.7392 C.ar      1 ACP         0.5614
     24 N7         -3.6659   -1.9257    0.1858 N.2       1 ACP        -0.5751
     25 C5         -3.0053   -3.1223    0.3069 C.ar      1 ACP        -0.2117
     26 C6         -3.3321   -4.4178   -0.0813 C.ar      1 ACP         0.7177
     27 N6         -4.5476   -4.6866   -0.7335 N.pl3     1 ACP        -0.9401
     28 N1         -2.4608   -5.4225    0.1773 N.ar      1 ACP        -0.8008
     29 C2         -1.3053   -5.1020    0.8081 C.ar      1 ACP         0.6565
     30 N3         -0.8788   -3.8921    1.2315 N.ar      1 ACP        -0.7061
     31 C4         -1.7870   -2.9477    0.9438 C.ar      1 ACP         0.5715
     32 HOG3       -1.6769    8.5432   -0.3558 H         1 ACP         0.4226
     33 HOB2       -0.7735    3.9476    4.1384 H         1 ACP         0.4482
     34 H3B1        0.4629    6.7223    1.9938 H         1 ACP         0.1012
     35 H3B2        0.2975    7.6003    3.5117 H         1 ACP         0.1012
     36 H5'1       -1.1770    2.0503    0.6369 H         1 ACP         0.0481
     37 H5'2       -0.2082    3.2815    1.4877 H         1 ACP         0.0481
     38 H4'         0.0403    1.7078    3.4343 H         1 ACP         0.0904
     39 H3'         1.5906    1.4859    1.1353 H         1 ACP         0.0809
     40 HO3'        2.6839   -0.1150    2.2479 H         1 ACP         0.4528
     41 H2'        -0.0017    0.0018    0.0005 H         1 ACP         0.0594
     42 HO2'        2.0953   -0.9375    0.0709 H         1 ACP         0.4344
     43 H1'        -0.1998   -1.6319    2.6178 H         1 ACP         0.1127
     44 H8         -3.0609    0.0200    0.8250 H         1 ACP         0.1050
     45 HN61       -5.2046   -3.9433   -0.8775 H         1 ACP         0.4211
     46 HN62       -4.7849   -5.6332   -0.9625 H         1 ACP         0.4211
     47 H2         -0.6318   -5.9307    0.9993 H         1 ACP         0.0375
@<TRIPOS>BOND
     1    1    2 2
     2    1    3 1
     3    1    4 1
     4    1    8 1
     5    4   32 1
     6    5    6 2
     7    5    7 1
     8    5    8 1
     9    5   12 1
    10    7   33 1
    11    8   34 1
    12    8   35 1
    13    9   10 2
    14    9   11 1
    15    9   12 1
    16    9   13 1
    17   13   14 1
    18   14   15 1
    19   14   36 1
    20   14   37 1
    21   15   16 1
    22   15   17 1
    23   15   38 1
    24   16   21 1
    25   17   18 1
    26   17   19 1
    27   17   39 1
    28   18   40 1
    29   19   20 1
    30   19   21 1
    31   19   41 1
    32   20   42 1
    33   21   22 1
    34   21   43 1
    35   22   23 ar
    36   22   31 ar
    37   23   24 ar
    38   23   44 1
    39   24   25 ar
    40   25   26 ar
    41   25   31 ar
    42   26   27 1
    43   26   28 ar
    44   27   45 1
    45   27   46 1
    46   28   29 ar
    47   29   30 ar
    48   29   47 1
    49   30   31 ar
@<TRIPOS>SUBSTRUCTURE
     1 ACP         1 GROUP 0 A     ****
@<TRIPOS>MOLECULE
[[[5-(6-aminopurin-9-yl)-3,4-dihydroxy-tetrahydrofuran-2-yl]methoxy-oxido-phosphoryl]oxy-hydroxy-phosphoryl]methyl-hydroxy-phosphinate
   47    49     1     0     0
SMALL
USER_CHARGES

@<TRIPOS>ATOM
      1 PG         -3.0199    6.5239    4.7535 P.3       1 ACP         1.3516
      2 O1G        -4.1996    6.2771    5.6650 O.co2     1 ACP        -0.8379
      3 O2G        -2.1585    7.7604    4.8660 O.co2     1 ACP        -0.8379
      4 O3G        -2.0670    5.2005    4.7305 O.3       1 ACP        -0.7980
      5 PB         -2.5842    6.6696    1.5687 P.3       1 ACP         1.7688
      6 O1B        -1.9034    8.0033    1.4926 O.2       1 ACP        -0.9167
      7 O2B        -3.5576    6.3321    0.3236 O.3       1 ACP        -0.8201
      8 C3B        -3.6409    6.4365    3.0140 C.3       1 ACP        -0.6097
      9 PA         -0.4663    4.8326    0.6227 P.3       1 ACP         1.5979
     10 O1A         0.6760    5.8249    0.6052 O.co2     1 ACP        -0.8617
     11 O2A        -1.1288    4.3936   -0.6650 O.co2     1 ACP        -0.8617
     12 O3A        -1.6097    5.3851    1.6478 O.3       1 ACP        -0.8283
     13 O5'         0.0181    3.5132    1.4596 O.3       1 ACP        -0.5783
     14 C5'        -0.8811    2.4285    1.6206 C.3       1 ACP         0.1980
     15 C4'        -0.1994    1.3333    2.4288 C.3       1 ACP         0.0815
     16 O4'        -1.1285    0.2356    2.5840 O.3       1 ACP        -0.4127
     17 C3'         1.0324    0.7610    1.7344 C.3       1 ACP         0.0890
     18 O3'         1.9175    0.2377    2.7247 O.3       1 ACP        -0.6221
     19 C2'         0.4468   -0.3802    0.9263 C.3       1 ACP         0.1067
     20 O2'         1.3993   -1.3703    0.5961 O.3       1 ACP        -0.6053
     21 C1'        -0.6159   -0.9100    1.8769 C.3       1 ACP         0.4223
     22 N9         -1.7127   -1.6108    1.2130 N.pl3     1 ACP        -0.6834
     23 C8         -2.8641   -1.0399    0.7392 C.ar      1 ACP         0.5614
     24 N7         -3.6659   -1.9257    0.1858 N.2       1 ACP        -0.5751
     25 C5         -3.0053   -3.1223    0.3069 C.ar      1 ACP        -0.2117
     26 C6         -3.3321   -4.4178   -0.0813 C.ar      1 ACP         0.7177
     27 N6         -4.5476   -4.6866   -0.7335 N.pl3     1 ACP        -0.9401
     28 N1         -2.4608   -5.4225    0.1773 N.ar      1 ACP        -0.8008
     29 C2         -1.3053   -5.1020    0.8081 C.ar      1 ACP         0.6565
     30 N3         -0.8788   -3.8921    1.2315 N.ar      1 ACP        -0.7061
     31 C4         -1.7870   -2.9477    0.9438 C.ar      1 ACP         0.5715
     32 HOG3       -1.6725    4.8934    5.5745 H         1 ACP         0.4226
     33 HOB2       -3.1787    6.3004   -0.5806 H         1 ACP         0.4482
     34 H3B1       -4.1267    5.4592    2.9151 H         1 ACP         0.1012
     35 H3B2       -4.4303    7.1937    2.9575 H         1 ACP         0.1012
     36 H5'1       -1.7769    2.7851    2.1387 H         1 ACP         0.0481
     37 H5'2       -1.1653    2.0543    0.6320 H         1 ACP         0.0481
     38 H4'         0.0403    1.7078    3.4343 H         1 ACP         0.0904
     39 H3'         1.5906    1.4859    1.1353 H         1 ACP         0.0809
     40 HO3'        2.6839   -0.1150    2.2479 H         1 ACP         0.4528
     41 H2'        -0.0017    0.0018    0.0005 H         1 ACP         0.0594
     42 HO2'        2.0953   -0.9375    0.0709 H         1 ACP         0.4344
     43 H1'        -0.1998   -1.6319    2.6178 H         1 ACP         0.1127
     44 H8         -3.0609    0.0200    0.8250 H         1 ACP         0.1050
     45 HN61       -5.2046   -3.9433   -0.8775 H         1 ACP         0.4211
     46 HN62       -4.7849   -5.6332   -0.9625 H         1 ACP         0.4211
     47 H2         -0.6318   -5.9307    0.9993 H         1 ACP         0.0375
@<TRIPOS>BOND
     1    1    2 2
     2    1    3 1
     3    1    4 1
     4    1    8 1
     5    4   32 1
     6    5    6 2
     7    5    7 1
     8    5    8 1
     9    5   12 1
    10    7   33 1
    11    8   34 1
    12    8   35 1
    13    9   10 2
    14    9   11 1
    15    9   12 1
    16    9   13 1
    17   13   14 1
    18   14   15 1
    19   14   36 1
    20   14   37 1
    21   15   16 1
    22   15   17 1
    23   15   38 1
    24   16   21 1
    25   17   18 1
    26   17   19 1
    27   17   39 1
    28   18   40 1
    29   19   20 1
    30   19   21 1
    31   19   41 1
    32   20   42 1
    33   21   22 1
    34   21   43 1
    35   22   23 ar
    36   22   31 ar
    37   23   24 ar
    38   23   44 1
    39   24   25 ar
    40   25   26 ar
    41   25   31 ar
    42   26   27 1
    43   26   28 ar
    44   27   45 1
    45   27   46 1
    46   28   29 ar
    47   29   30 ar
    48   29   47 1
    49   30   31 ar
@<TRIPOS>SUBSTRUCTURE
     1 ACP         1 GROUP 0 A     ****
@<TRIPOS>MOLECULE
[[[5-(6-aminopurin-9-yl)-3,4-dihydroxy-tetrahydrofuran-2-yl]methoxy-oxido-phosphoryl]oxy-hydroxy-phosphoryl]methyl-hydroxy-phosphinate
   47    49     1     0     0
SMALL
USER_CHARGES

@<TRIPOS>ATOM
      1 PG         -4.0225    7.7437    2.4326 P.3       1 ACP         1.3516
      2 O1G        -5.3973    7.9845    3.0114 O.co2     1 ACP        -0.8379
      3 O2G        -3.8136    7.3382    0.9918 O.co2     1 ACP        -0.8379
      4 O3G        -3.0572    9.0106    2.7838 O.3       1 ACP        -0.7980
      5 PB         -1.5227    5.8633    3.1872 P.3       1 ACP         1.7688
      6 O1B        -1.0383    4.8351    4.1651 O.2       1 ACP        -0.9167
      7 O2B        -0.6293    7.2081    3.1176 O.3       1 ACP        -0.8201
      8 C3B        -3.1940    6.4746    3.4919 C.3       1 ACP        -0.6097
      9 PA         -0.4663    4.8326    0.6227 P.3       1 ACP         1.5979
     10 O1A         0.6760    5.8249    0.6052 O.co2     1 ACP        -0.8617
     11 O2A        -1.1288    4.3936   -0.6650 O.co2     1 ACP        -0.8617
     12 O3A        -1.6097    5.3851    1.6478 O.3       1 ACP        -0.8283
     13 O5'         0.0181    3.5132    1.4596 O.3       1 ACP        -0.5783
     14 C5'        -0.8811    2.4285    1.6206 C.3       1 ACP         0.1980
     15 C4'        -0.1994    1.3333    2.4288 C.3       1 ACP         0.0815
     16 O4'        -1.1285    0.2356    2.5840 O.3       1 ACP        -0.4127
     17 C3'         1.0324    0.7610    1.7344 C.3       1 ACP         0.0890
     18 O3'         1.9175    0.2377    2.7247 O.3       1 ACP        -0.6221
     19 C2'         0.4468   -0.3802    0.9263 C.3       1 ACP         0.1067
     20 O2'         1.3993   -1.3703    0.5961 O.3       1 ACP        -0.6053
     21 C1'        -0.6159   -0.9100    1.8769 C.3       1 ACP         0.4223
     22 N9         -1.7127   -1.6108    1.2130 N.pl3     1 ACP        -0.6834
     23 C8         -2.8641   -1.0399    0.7392 C.ar      1 ACP         0.5614
     24 N7         -3.6659   -1.9257    0.1858 N.2       1 ACP        -0.5751
     25 C5         -3.0053   -3.1223    0.3069 C.ar      1 ACP        -0.2117
     26 C6         -3.3321   -4.4178   -0.0813 C.ar      1 ACP         0.7177
     27 N6         -4.5476   -4.6866   -0.7335 N.pl3     1 ACP        -0.9401
     28 N1         -2.4608   -5.4225    0.1773 N.ar      1 ACP        -0.8008
     29 C2         -1.3053   -5.1020    0.8081 C.ar      1 ACP         0.6565
     30 N3         -0.8788   -3.8921    1.2315 N.ar      1 ACP        -0.7061
     31 C4         -1.7870   -2.9477    0.9438 C.ar      1 ACP         0.5715
     32 HOG3       -3.3148    9.8993    2.4582 H         1 ACP         0.4226
     33 HOB2        0.3162    7.1377    2.8662 H         1 ACP         0.4482
     34 H3B1       -3.2213    6.8693    4.5138 H         1 ACP         0.1012
     35 H3B2       -3.8610    5.6062    3.4661 H         1 ACP         0.1012
     36 H5'1       -1.7769    2.7851    2.1387 H         1 ACP         0.0481
     37 H5'2       -1.1653    2.0543    0.6320 H         1 ACP         0.0481
     38 H4'         0.0403    1.7078    3.4343 H         1 ACP         0.0904
     39 H3'         1.5906    1.4859    1.1353 H         1 ACP         0.0809
     40 HO3'        2.6839   -0.1150    2.2479 H         1 ACP         0.4528
     41 H2'        -0.0017    0.0018    0.0005 H         1 ACP         0.0594
     42 HO2'        2.0953   -0.9375    0.0709 H         1 ACP         0.4344
     43 H1'        -0.1998   -1.6319    2.6178 H         1 ACP         0.1127
     44 H8         -3.0609    0.0200    0.8250 H         1 ACP         0.1050
     45 HN61       -5.2046   -3.9433   -0.8775 H         1 ACP         0.4211
     46 HN62       -4.7849   -5.6332   -0.9625 H         1 ACP         0.4211
     47 H2         -0.6318   -5.9307    0.9993 H         1 ACP         0.0375
@<TRIPOS>BOND
     1    1    2 2
     2    1    3 1
     3    1    4 1
     4    1    8 1
     5    4   32 1
     6    5    6 2
     7    5    7 1
     8    5    8 1
     9    5   12 1
    10    7   33 1
    11    8   34 1
    12    8   35 1
    13    9   10 2
    14    9   11 1
    15    9   12 1
    16    9   13 1
    17   13   14 1
    18   14   15 1
    19   14   36 1
    20   14   37 1
    21   15   16 1
    22   15   17 1
    23   15   38 1
    24   16   21 1
    25   17   18 1
    26   17   19 1
    27   17   39 1
    28   18   40 1
    29   19   20 1
    30   19   21 1
    31   19   41 1
    32   20   42 1
    33   21   22 1
    34   21   43 1
    35   22   23 ar
    36   22   31 ar
    37   23   24 ar
    38   23   44 1
    39   24   25 ar
    40   25   26 ar
    41   25   31 ar
    42   26   27 1
    43   26   28 ar
    44   27   45 1
    45   27   46 1
    46   28   29 ar
    47   29   30 ar
    48   29   47 1
    49   30   31 ar
@<TRIPOS>SUBSTRUCTURE
     1 ACP         1 GROUP 0 A     ****
@<TRIPOS>MOLECULE
[[[5-(6-aminopurin-9-yl)-3,4-dihydroxy-tetrahydrofuran-2-yl]methoxy-oxido-phosphoryl]oxy-hydroxy-phosphoryl]methyl-hydroxy-phosphinate
   47    49     1     0     0
SMALL
USER_CHARGES

@<TRIPOS>ATOM
      1 PG         -0.2691    2.1273   -3.5052 P.3       1 ACP         1.3516
      2 O1G         0.7912    2.9688   -4.1767 O.co2     1 ACP        -0.8379
      3 O2G        -0.8105    0.8623   -4.1301 O.co2     1 ACP        -0.8379
      4 O3G         0.1752    1.8233   -1.9656 O.3       1 ACP        -0.7980
      5 PB         -1.6038    4.6990   -2.1056 P.3       1 ACP         1.7688
      6 O1B        -2.8875    5.4581   -1.9507 O.2       1 ACP        -0.9167
      7 O2B        -0.3879    5.5458   -2.7507 O.3       1 ACP        -0.8201
      8 C3B        -1.7088    3.2332   -3.1545 C.3       1 ACP        -0.6097
      9 PA         -0.4663    4.8326    0.6227 P.3       1 ACP         1.5979
     10 O1A        -1.6742    5.4170    1.3223 O.co2     1 ACP        -0.8617
     11 O2A         0.7364    5.6947    0.3068 O.co2     1 ACP        -0.8617
     12 O3A        -0.9709    4.1011   -0.7462 O.3       1 ACP        -0.8283
     13 O5'         0.0181    3.5132    1.4596 O.3       1 ACP        -0.5783
     14 C5'        -0.8811    2.4285    1.6206 C.3       1 ACP         0.1980
     15 C4'        -0.1994    1.3333    2.4288 C.3       1 ACP         0.0815
     16 O4'        -1.1285    0.2356    2.5840 O.3       1 ACP        -0.4127
     17 C3'         1.0324    0.7610    1.7344 C.3       1 ACP         0.0890
     18 O3'         1.9175    0.2377    2.7247 O.3       1 ACP        -0.6221
     19 C2'         0.4468   -0.3802    0.9263 C.3       1 ACP         0.1067
     20 O2'         1.3993   -1.3703    0.5961 O.3       1 ACP        -0.6053
     21 C1'        -0.6159   -0.9100    1.8769 C.3       1 ACP         0.4223
     22 N9         -1.7127   -1.6108    1.2130 N.pl3     1 ACP        -0.6834
     23 C8         -2.8641   -1.0399    0.7392 C.ar      1 ACP         0.5614
     24 N7         -3.6659   -1.9257    0.1858 N.2       1 ACP        -0.5751
     25 C5         -3.0053   -3.1223    0.3069 C.ar      1 ACP        -0.2117
     26 C6         -3.3321   -4.4178   -0.0813 C.ar      1 ACP         0.7177
     27 N6         -4.5476   -4.6866   -0.7335 N.pl3     1 ACP        -0.9401
     28 N1         -2.4608   -5.4225    0.1773 N.ar      1 ACP        -0.8008
     29 C2         -1.3053   -5.1020    0.8081 C.ar      1 ACP         0.6565
     30 N3         -0.8788   -3.8921    1.2315 N.ar      1 ACP        -0.7061
     31 C4         -1.7870   -2.9477    0.9438 C.ar      1 ACP         0.5715
     32 HOG3        1.0153    1.3421   -1.8075 H         1 ACP         0.4226
     33 HOB2       -0.0760    6.3544   -2.2913 H         1 ACP         0.4482
     34 H3B1       -2.0906    3.5514   -4.1312 H         1 ACP         0.1012
     35 H3B2       -2.4671    2.5782   -2.7123 H         1 ACP         0.1012
     36 H5'1       -1.7769    2.7851    2.1387 H         1 ACP         0.0481
     37 H5'2       -1.1653    2.0543    0.6320 H         1 ACP         0.0481
     38 H4'         0.0403    1.7078    3.4343 H         1 ACP         0.0904
     39 H3'         1.5906    1.4859    1.1353 H         1 ACP         0.0809
     40 HO3'        2.6839   -0.1150    2.2479 H         1 ACP         0.4528
     41 H2'        -0.0017    0.0018    0.0005 H         1 ACP         0.0594
     42 HO2'        2.0953   -0.9375    0.0709 H         1 ACP         0.4344
     43 H1'        -0.1998   -1.6319    2.6178 H         1 ACP         0.1127
     44 H8         -3.0609    0.0200    0.8250 H         1 ACP         0.1050
     45 HN61       -5.2046   -3.9433   -0.8775 H         1 ACP         0.4211
     46 HN62       -4.7849   -5.6332   -0.9625 H         1 ACP         0.4211
     47 H2         -0.6318   -5.9307    0.9993 H         1 ACP         0.0375
@<TRIPOS>BOND
     1    1    2 2
     2    1    3 1
     3    1    4 1
     4    1    8 1
     5    4   32 1
     6    5    6 2
     7    5    7 1
     8    5    8 1
     9    5   12 1
    10    7   33 1
    11    8   34 1
    12    8   35 1
    13    9   10 2
    14    9   11 1
    15    9   12 1
    16    9   13 1
    17   13   14 1
    18   14   15 1
    19   14   36 1
    20   14   37 1
    21   15   16 1
    22   15   17 1
    23   15   38 1
    24   16   21 1
    25   17   18 1
    26   17   19 1
    27   17   39 1
    28   18   40 1
    29   19   20 1
    30   19   21 1
    31   19   41 1
    32   20   42 1
    33   21   22 1
    34   21   43 1
    35   22   23 ar
    36   22   31 ar
    37   23   24 ar
    38   23   44 1
    39   24   25 ar
    40   25   26 ar
    41   25   31 ar
    42   26   27 1
    43   26   28 ar
    44   27   45 1
    45   27   46 1
    46   28   29 ar
    47   29   30 ar
    48   29   47 1
    49   30   31 ar
@<TRIPOS>SUBSTRUCTURE
     1 ACP         1 GROUP 0 A     ****
@<TRIPOS>MOLECULE
[[[5-(6-aminopurin-9-yl)-3,4-dihydroxy-tetrahydrofuran-2-yl]methoxy-oxido-phosphoryl]oxy-hydroxy-phosphoryl]methyl-hydroxy-phosphinate
   47    49     1     0     0
SMALL
USER_CHARGES

@<TRIPOS>ATOM
      1 PG          3.0241    5.7183    2.6353 P.3       1 ACP         1.3516
      2 O1G         2.5472    4.2977    2.4406 O.co2     1 ACP        -0.8379
      3 O2G         4.2710    6.0498    3.4222 O.co2     1 ACP        -0.8379
      4 O3G         3.0785    6.4742    1.1911 O.3       1 ACP        -0.7980
      5 PB          0.0194    6.8686    2.5842 P.3       1 ACP         1.7688
      6 O1B         0.0578    7.5472    1.2477 O.2       1 ACP        -0.9167
      7 O2B        -0.8742    7.6198    3.7017 O.3       1 ACP        -0.8201
      8 C3B         1.6265    6.6704    3.3829 C.3       1 ACP        -0.6097
      9 PA         -2.0038    4.7531    2.1525 P.3       1 ACP         1.5979
     10 O1A        -2.1508    4.9097    0.6546 O.co2     1 ACP        -0.8617
     11 O2A        -3.0647    5.2822    3.0929 O.co2     1 ACP        -0.8617
     12 O3A        -0.5536    5.3594    2.5914 O.3       1 ACP        -0.8283
     13 O5'        -1.7337    3.1724    2.4753 O.3       1 ACP        -0.5783
     14 C5'        -0.8811    2.4285    1.6206 C.3       1 ACP         0.1980
     15 C4'        -0.1994    1.3333    2.4288 C.3       1 ACP         0.0815
     16 O4'        -1.1285    0.2356    2.5840 O.3       1 ACP        -0.4127
     17 C3'         1.0324    0.7610    1.7344 C.3       1 ACP         0.0890
     18 O3'         1.9175    0.2377    2.7247 O.3       1 ACP        -0.6221
     19 C2'         0.4468   -0.3802    0.9263 C.3       1 ACP         0.1067
     20 O2'         1.3993   -1.3703    0.5961 O.3       1 ACP        -0.6053
     21 C1'        -0.6159   -0.9100    1.8769 C.3       1 ACP         0.4223
     22 N9         -1.7127   -1.6108    1.2130 N.pl3     1 ACP        -0.6834
     23 C8         -2.8641   -1.0399    0.7392 C.ar      1 ACP         0.5614
     24 N7         -3.6659   -1.9257    0.1858 N.2       1 ACP        -0.5751
     25 C5         -3.0053   -3.1223    0.3069 C.ar      1 ACP        -0.2117
     26 C6         -3.3321   -4.4178   -0.0813 C.ar      1 ACP         0.7177
     27 N6         -4.5476   -4.6866   -0.7335 N.pl3     1 ACP        -0.9401
     28 N1         -2.4608   -5.4225    0.1773 N.ar      1 ACP        -0.8008
     29 C2         -1.3053   -5.1020    0.8081 C.ar      1 ACP         0.6565
     30 N3         -0.8788   -3.8921    1.2315 N.ar      1 ACP        -0.7061
     31 C4         -1.7870   -2.9477    0.9438 C.ar      1 ACP         0.5715
     32 HOG3        3.6612    6.1070    0.4925 H         1 ACP         0.4226
     33 HOB2       -1.8302    7.7579    3.5313 H         1 ACP         0.4482
     34 H3B1        1.4533    6.2279    4.3704 H         1 ACP         0.1012
     35 H3B2        2.0266    7.6764    3.5485 H         1 ACP         0.1012
     36 H5'1       -1.4802    1.9928    0.8147 H         1 ACP         0.0481
     37 H5'2       -0.1369    3.1042    1.1873 H         1 ACP         0.0481
     38 H4'         0.0403    1.7078    3.4343 H         1 ACP         0.0904
     39 H3'         1.5906    1.4859    1.1353 H         1 ACP         0.0809
     40 HO3'        2.6839   -0.1150    2.2479 H         1 ACP         0.4528
     41 H2'        -0.0017    0.0018    0.0005 H         1 ACP         0.0594
     42 HO2'        2.0953   -0.9375    0.0709 H         1 ACP         0.4344
     43 H1'        -0.1998   -1.6319    2.6178 H         1 ACP         0.1127
     44 H8         -3.0609    0.0200    0.8250 H         1 ACP         0.1050
     45 HN61       -5.2046   -3.9433   -0.8775 H         1 ACP         0.4211
     46 HN62       -4.7849   -5.6332   -0.9625 H         1 ACP         0.4211
     47 H2         -0.6318   -5.9307    0.9993 H         1 ACP         0.0375
@<TRIPOS>BOND
     1    1    2 2
     2    1    3 1
     3    1    4 1
     4    1    8 1
     5    4   32 1
     6    5    6 2
     7    5    7 1
     8    5    8 1
     9    5   12 1
    10    7   33 1
    11    8   34 1
    12    8   35 1
    13    9   10 2
    14    9   11 1
    15    9   12 1
    16    9   13 1
    17   13   14 1
    18   14   15 1
    19   14   36 1
    20   14   37 1
    21   15   16 1
    22   15   17 1
    23   15   38 1
    24   16   21 1
    25   17   18 1
    26   17   19 1
    27   17   39 1
    28   18   40 1
    29   19   20 1
    30   19   21 1
    31   19   41 1
    32   20   42 1
    33   21   22 1
    34   21   43 1
    35   22   23 ar
    36   22   31 ar
    37   23   24 ar
    38   23   44 1
    39   24   25 ar
    40   25   26 ar
    41   25   31 ar
    42   26   27 1
    43   26   28 ar
    44   27   45 1
    45   27   46 1
    46   28   29 ar
    47   29   30 ar
    48   29   47 1
    49   30   31 ar
@<TRIPOS>SUBSTRUCTURE
     1 ACP         1 GROUP 0 A     ****
@<TRIPOS>MOLECULE
[[[5-(6-aminopurin-9-yl)-3,4-dihydroxy-tetrahydrofuran-2-yl]methoxy-oxido-phosphoryl]oxy-hydroxy-phosphoryl]methyl-hydroxy-phosphinate
   47    49     1     0     0
SMALL
USER_CHARGES

@<TRIPOS>ATOM
      1 PG          0.2370    5.6087    6.0442 P.3       1 ACP         1.3516
      2 O1G         0.0573    4.1710    5.6154 O.co2     1 ACP        -0.8379
      3 O2G        -0.6866    6.2758    7.0370 O.co2     1 ACP        -0.8379
      4 O3G         1.7848    5.8492    6.4985 O.3       1 ACP        -0.7980
      5 PB         -1.1398    6.7157    3.3547 P.3       1 ACP         1.7688
      6 O1B        -0.9300    7.6162    2.1744 O.2       1 ACP        -0.9167
      7 O2B        -2.4003    7.1033    4.2889 O.3       1 ACP        -0.8201
      8 C3B         0.2445    6.6431    4.5115 C.3       1 ACP        -0.6097
      9 PA         -2.5403    4.4097    2.1396 P.3       1 ACP         1.5979
     10 O1A        -2.3645    4.8018    0.6886 O.co2     1 ACP        -0.8617
     11 O2A        -3.8743    4.5856    2.8318 O.co2     1 ACP        -0.8617
     12 O3A        -1.3835    5.1562    3.0160 O.3       1 ACP        -0.8283
     13 O5'        -2.0402    2.8619    2.3131 O.3       1 ACP        -0.5783
     14 C5'        -0.8811    2.4285    1.6206 C.3       1 ACP         0.1980
     15 C4'        -0.1994    1.3333    2.4288 C.3       1 ACP         0.0815
     16 O4'        -1.1285    0.2356    2.5840 O.3       1 ACP        -0.4127
     17 C3'         1.0324    0.7610    1.7344 C.3       1 ACP         0.0890
     18 O3'         1.9175    0.2377    2.7247 O.3       1 ACP        -0.6221
     19 C2'         0.4468   -0.3802    0.9263 C.3       1 ACP         0.1067
     20 O2'         1.3993   -1.3703    0.5961 O.3       1 ACP        -0.6053
     21 C1'        -0.6159   -0.9100    1.8769 C.3       1 ACP         0.4223
     22 N9         -1.7127   -1.6108    1.2130 N.pl3     1 ACP        -0.6834
     23 C8         -2.8641   -1.0399    0.7392 C.ar      1 ACP         0.5614
     24 N7         -3.6659   -1.9257    0.1858 N.2       1 ACP        -0.5751
     25 C5         -3.0053   -3.1223    0.3069 C.ar      1 ACP        -0.2117
     26 C6         -3.3321   -4.4178   -0.0813 C.ar      1 ACP         0.7177
     27 N6         -4.5476   -4.6866   -0.7335 N.pl3     1 ACP        -0.9401
     28 N1         -2.4608   -5.4225    0.1773 N.ar      1 ACP        -0.8008
     29 C2         -1.3053   -5.1020    0.8081 C.ar      1 ACP         0.6565
     30 N3         -0.8788   -3.8921    1.2315 N.ar      1 ACP        -0.7061
     31 C4         -1.7870   -2.9477    0.9438 C.ar      1 ACP         0.5715
     32 HOG3        2.1417    5.3186    7.2425 H         1 ACP         0.4226
     33 HOB2       -3.2985    7.1122    3.8949 H         1 ACP         0.4482
     34 H3B1        0.4567    7.6672    4.8389 H         1 ACP         0.1012
     35 H3B2        1.1167    6.3011    3.9442 H         1 ACP         0.1012
     36 H5'1       -1.1770    2.0503    0.6369 H         1 ACP         0.0481
     37 H5'2       -0.2082    3.2815    1.4877 H         1 ACP         0.0481
     38 H4'         0.0403    1.7078    3.4343 H         1 ACP         0.0904
     39 H3'         1.5906    1.4859    1.1353 H         1 ACP         0.0809
     40 HO3'        2.6839   -0.1150    2.2479 H         1 ACP         0.4528
     41 H2'        -0.0017    0.0018    0.0005 H         1 ACP         0.0594
     42 HO2'        2.0953   -0.9375    0.0709 H         1 ACP         0.4344
     43 H1'        -0.1998   -1.6319    2.6178 H         1 ACP         0.1127
     44 H8         -3.0609    0.0200    0.8250 H         1 ACP         0.1050
     45 HN61       -5.2046   -3.9433   -0.8775 H         1 ACP         0.4211
     46 HN62       -4.7849   -5.6332   -0.9625 H         1 ACP         0.4211
     47 H2         -0.6318   -5.9307    0.9993 H         1 ACP         0.0375
@<TRIPOS>BOND
     1    1    2 2
     2    1    3 1
     3    1    4 1
     4    1    8 1
     5    4   32 1
     6    5    6 2
     7    5    7 1
     8    5    8 1
     9    5   12 1
    10    7   33 1
    11    8   34 1
    12    8   35 1
    13    9   10 2
    14    9   11 1
    15    9   12 1
    16    9   13 1
    17   13   14 1
    18   14   15 1
    19   14   36 1
    20   14   37 1
    21   15   16 1
    22   15   17 1
    23   15   38 1
    24   16   21 1
    25   17   18 1
    26   17   19 1
    27   17   39 1
    28   18   40 1
    29   19   20 1
    30   19   21 1
    31   19   41 1
    32   20   42 1
    33   21   22 1
    34   21   43 1
    35   22   23 ar
    36   22   31 ar
    37   23   24 ar
    38   23   44 1
    39   24   25 ar
    40   25   26 ar
    41   25   31 ar
    42   26   27 1
    43   26   28 ar
    44   27   45 1
    45   27   46 1
    46   28   29 ar
    47   29   30 ar
    48   29   47 1
    49   30   31 ar
@<TRIPOS>SUBSTRUCTURE
     1 ACP         1 GROUP 0 A     ****
@<TRIPOS>MOLECULE
[[[5-(6-aminopurin-9-yl)-3,4-dihydroxy-tetrahydrofuran-2-yl]methoxy-oxido-phosphoryl]oxy-hydroxy-phosphoryl]methyl-hydroxy-phosphinate
   47    49     1     0     0
SMALL
USER_CHARGES

@<TRIPOS>ATOM
      1 PG          1.6481    6.3266    0.1910 P.3       1 ACP         1.3516
      2 O1G         0.6034    5.7810   -0.7546 O.co2     1 ACP        -0.8379
      3 O2G         2.7546    5.4653    0.7546 O.co2     1 ACP        -0.8379
      4 O3G         2.2888    7.6886   -0.4370 O.3       1 ACP        -0.7980
      5 PB         -0.3564    6.1613    2.7028 P.3       1 ACP         1.7688
      6 O1B        -0.9813    6.9661    3.8027 O.2       1 ACP        -0.9167
      7 O2B         0.5439    4.9150    3.2007 O.3       1 ACP        -0.8201
      8 C3B         0.7537    7.0861    1.6201 C.3       1 ACP        -0.6097
      9 PA         -2.5929    4.4189    1.8558 P.3       1 ACP         1.5979
     10 O1A        -3.1012    4.0084    0.4909 O.co2     1 ACP        -0.8617
     11 O2A        -3.5438    4.9443    2.9091 O.co2     1 ACP        -0.8617
     12 O3A        -1.3812    5.4927    1.6499 O.3       1 ACP        -0.8283
     13 O5'        -1.7337    3.1724    2.4753 O.3       1 ACP        -0.5783
     14 C5'        -0.8811    2.4285    1.6206 C.3       1 ACP         0.1980
     15 C4'        -0.1994    1.3333    2.4288 C.3       1 ACP         0.0815
     16 O4'        -1.1285    0.2356    2.5840 O.3       1 ACP        -0.4127
     17 C3'         1.0324    0.7610    1.7344 C.3       1 ACP         0.0890
     18 O3'         1.9175    0.2377    2.7247 O.3       1 ACP        -0.6221
     19 C2'         0.4468   -0.3802    0.9263 C.3       1 ACP         0.1067
     20 O2'         1.3993   -1.3703    0.5961 O.3       1 ACP        -0.6053
     21 C1'        -0.6159   -0.9100    1.8769 C.3       1 ACP         0.4223
     22 N9         -1.7127   -1.6108    1.2130 N.pl3     1 ACP        -0.6834
     23 C8         -2.8641   -1.0399    0.7392 C.ar      1 ACP         0.5614
     24 N7         -3.6659   -1.9257    0.1858 N.2       1 ACP        -0.5751
     25 C5         -3.0053   -3.1223    0.3069 C.ar      1 ACP        -0.2117
     26 C6         -3.3321   -4.4178   -0.0813 C.ar      1 ACP         0.7177
     27 N6         -4.5476   -4.6866   -0.7335 N.pl3     1 ACP        -0.9401
     28 N1         -2.4608   -5.4225    0.1773 N.ar      1 ACP        -0.8008
     29 C2         -1.3053   -5.1020    0.8081 C.ar      1 ACP         0.6565
     30 N3         -0.8788   -3.8921    1.2315 N.ar      1 ACP        -0.7061
     31 C4         -1.7870   -2.9477    0.9438 C.ar      1 ACP         0.5715
     32 HOG3        2.7401    7.6356   -1.3064 H         1 ACP         0.4226
     33 HOB2        0.1233    4.2094    3.7367 H         1 ACP         0.4482
     34 H3B1        1.5243    7.5450    2.2497 H         1 ACP         0.1012
     35 H3B2        0.1677    7.9027    1.1848 H         1 ACP         0.1012
     36 H5'1       -1.4802    1.9928    0.8147 H         1 ACP         0.0481
     37 H5'2       -0.1369    3.1042    1.1873 H         1 ACP         0.0481
     38 H4'         0.0403    1.7078    3.4343 H         1 ACP         0.0904
     39 H3'         1.5906    1.4859    1.1353 H         1 ACP         0.0809
     40 HO3'        2.1521    0.9800    3.3017 H         1 ACP         0.4528
     41 H2'        -0.0017    0.0018    0.0005 H         1 ACP         0.0594
     42 HO2'        0.9369   -2.0558    0.0825 H         1 ACP         0.4344
     43 H1'        -0.1998   -1.6319    2.6178 H         1 ACP         0.1127
     44 H8         -3.0609    0.0200    0.8250 H         1 ACP         0.1050
     45 HN61       -5.2046   -3.9433   -0.8775 H         1 ACP         0.4211
     46 HN62       -4.7849   -5.6332   -0.9625 H         1 ACP         0.4211
     47 H2         -0.6318   -5.9307    0.9993 H         1 ACP         0.0375
@<TRIPOS>BOND
     1    1    2 2
     2    1    3 1
     3    1    4 1
     4    1    8 1
     5    4   32 1
     6    5    6 2
     7    5    7 1
     8    5    8 1
     9    5   12 1
    10    7   33 1
    11    8   34 1
    12    8   35 1
    13    9   10 2
    14    9   11 1
    15    9   12 1
    16    9   13 1
    17   13   14 1
    18   14   15 1
    19   14   36 1
    20   14   37 1
    21   15   16 1
    22   15   17 1
    23   15   38 1
    24   16   21 1
    25   17   18 1
    26   17   19 1
    27   17   39 1
    28   18   40 1
    29   19   20 1
    30   19   21 1
    31   19   41 1
    32   20   42 1
    33   21   22 1
    34   21   43 1
    35   22   23 ar
    36   22   31 ar
    37   23   24 ar
    38   23   44 1
    39   24   25 ar
    40   25   26 ar
    41   25   31 ar
    42   26   27 1
    43   26   28 ar
    44   27   45 1
    45   27   46 1
    46   28   29 ar
    47   29   30 ar
    48   29   47 1
    49   30   31 ar
@<TRIPOS>SUBSTRUCTURE
     1 ACP         1 GROUP 0 A     ****
@<TRIPOS>MOLECULE
[[[5-(6-aminopurin-9-yl)-3,4-dihydroxy-tetrahydrofuran-2-yl]methoxy-oxido-phosphoryl]oxy-hydroxy-phosphoryl]methyl-hydroxy-phosphinate
   47    49     1     0     0
SMALL
USER_CHARGES

@<TRIPOS>ATOM
      1 PG          3.0300    4.7792   -4.4889 P.3       1 ACP         1.3516
      2 O1G         2.1571    4.1871   -5.5709 O.co2     1 ACP        -0.8379
      3 O2G         3.3935    6.2457   -4.4582 O.co2     1 ACP        -0.8379
      4 O3G         2.4598    4.3321   -3.0277 O.3       1 ACP        -0.7980
      5 PB          5.9673    4.1613   -3.3294 P.3       1 ACP         1.7688
      6 O1B         6.5514    5.5375   -3.4432 O.2       1 ACP        -0.9167
      7 O2B         7.0099    2.9566   -3.6007 O.3       1 ACP        -0.8201
      8 C3B         4.6080    3.8157   -4.4664 C.3       1 ACP        -0.6097
      9 PA          5.9686    3.7223   -0.4032 P.3       1 ACP         1.5979
     10 O1A         6.3362    5.1287    0.0170 O.co2     1 ACP        -0.8617
     11 O2A         6.9928    2.6093   -0.3583 O.co2     1 ACP        -0.8617
     12 O3A         5.3191    3.7875   -1.8990 O.3       1 ACP        -0.8283
     13 O5'         4.6405    3.2701    0.4379 O.3       1 ACP        -0.5783
     14 C5'         4.0922    1.9801    0.2227 C.3       1 ACP         0.1980
     15 C4'         2.5944    2.0310    0.4653 C.3       1 ACP         0.0815
     16 O4'         1.9327    2.5740   -0.6889 O.3       1 ACP        -0.4127
     17 C3'         1.9685    0.6634    0.6767 C.3       1 ACP         0.0890
     18 O3'         2.1425    0.1975    1.9977 O.3       1 ACP        -0.6221
     19 C2'         0.5176    0.9128    0.3099 C.3       1 ACP         0.1067
     20 O2'        -0.2103    1.4454    1.4152 O.3       1 ACP        -0.6053
     21 C1'         0.6219    1.9765   -0.7844 C.3       1 ACP         0.4223
     22 N9          0.4237    1.4496   -2.1357 N.pl3     1 ACP        -0.6834
     23 C8          1.4026    0.9717   -2.9660 C.ar      1 ACP         0.5614
     24 N7          0.9183    0.5619   -4.1197 N.2       1 ACP        -0.5751
     25 C5         -0.4330    0.7845   -4.0331 C.ar      1 ACP        -0.2117
     26 C6         -1.4794    0.5615   -4.9225 C.ar      1 ACP         0.7177
     27 N6         -1.2378    0.0044   -6.1899 N.pl3     1 ACP        -0.9401
     28 N1         -2.7406    0.8885   -4.5512 N.ar      1 ACP        -0.8008
     29 C2         -2.9113    1.4216   -3.3172 C.ar      1 ACP         0.6565
     30 N3         -1.9824    1.6843   -2.3721 N.ar      1 ACP        -0.7061
     31 C4         -0.7613    1.3370   -2.8054 C.ar      1 ACP         0.5715
     32 HOG3        1.5458    4.5910   -2.7830 H         1 ACP         0.4226
     33 HOB2        7.8012    2.8750   -3.0269 H         1 ACP         0.4482
     34 H3B1        4.3201    2.7671   -4.3296 H         1 ACP         0.1012
     35 H3B2        5.0097    3.9077   -5.4811 H         1 ACP         0.1012
     36 H5'1        4.3030    1.6731   -0.8066 H         1 ACP         0.0481
     37 H5'2        4.5679    1.2740    0.9106 H         1 ACP         0.0481
     38 H4'         2.3751    2.7029    1.3156 H         1 ACP         0.0904
     39 H3'         2.4336   -0.1217   -0.0015 H         1 ACP         0.0809
     40 HO3'        1.7160   -0.6716    2.0397 H         1 ACP         0.4528
     41 H2'         0.0316    0.0155   -0.0339 H         1 ACP         0.0594
     42 HO2'       -0.1608    0.7921    2.1351 H         1 ACP         0.4344
     43 H1'        -0.1474    2.7798   -0.6651 H         1 ACP         0.1127
     44 H8          2.4442    0.9470   -2.6763 H         1 ACP         0.1050
     45 HN61       -0.2955   -0.1901   -6.4713 H         1 ACP         0.4211
     46 HN62       -1.9987   -0.1045   -6.8334 H         1 ACP         0.4211
     47 H2         -3.9335    1.6716   -3.0534 H         1 ACP         0.0375
@<TRIPOS>BOND
     1    1    2 2
     2    1    3 1
     3    1    4 1
     4    1    8 1
     5    4   32 1
     6    5    6 2
     7    5    7 1
     8    5    8 1
     9    5   12 1
    10    7   33 1
    11    8   34 1
    12    8   35 1
    13    9   10 2
    14    9   11 1
    15    9   12 1
    16    9   13 1
    17   13   14 1
    18   14   15 1
    19   14   36 1
    20   14   37 1
    21   15   16 1
    22   15   17 1
    23   15   38 1
    24   16   21 1
    25   17   18 1
    26   17   19 1
    27   17   39 1
    28   18   40 1
    29   19   20 1
    30   19   21 1
    31   19   41 1
    32   20   42 1
    33   21   22 1
    34   21   43 1
    35   22   23 ar
    36   22   31 ar
    37   23   24 ar
    38   23   44 1
    39   24   25 ar
    40   25   26 ar
    41   25   31 ar
    42   26   27 1
    43   26   28 ar
    44   27   45 1
    45   27   46 1
    46   28   29 ar
    47   29   30 ar
    48   29   47 1
    49   30   31 ar
@<TRIPOS>SUBSTRUCTURE
     1 ACP         1 GROUP 0 A     ****
@<TRIPOS>MOLECULE
[[[5-(6-aminopurin-9-yl)-3,4-dihydroxy-tetrahydrofuran-2-yl]methoxy-oxido-phosphoryl]oxy-hydroxy-phosphoryl]methyl-hydroxy-phosphinate
   47    49     1     0     0
SMALL
USER_CHARGES

@<TRIPOS>ATOM
      1 PG         -3.3523    4.1512    5.3177 P.3       1 ACP         1.3516
      2 O1G        -4.4109    4.1308    4.2397 O.co2     1 ACP        -0.8379
      3 O2G        -3.6889    3.9895    6.7820 O.co2     1 ACP        -0.8379
      4 O3G        -2.1544    3.1181    4.9203 O.3       1 ACP        -0.7980
      5 PB         -1.9507    6.4369    3.5386 P.3       1 ACP         1.7688
      6 O1B        -1.1905    7.7271    3.6129 O.2       1 ACP        -0.9167
      7 O2B        -3.3514    6.5194    2.7367 O.3       1 ACP        -0.8201
      8 C3B        -2.4123    5.7331    5.1359 C.3       1 ACP        -0.6097
      9 PA         -0.5788    5.0303    1.3262 P.3       1 ACP         1.5979
     10 O1A         0.5862    5.9826    1.1662 O.co2     1 ACP        -0.8617
     11 O2A        -1.7218    5.0335    0.3346 O.co2     1 ACP        -0.8617
     12 O3A        -1.1812    5.2058    2.8328 O.3       1 ACP        -0.8283
     13 O5'         0.0181    3.5132    1.4596 O.3       1 ACP        -0.5783
     14 C5'        -0.8811    2.4285    1.6206 C.3       1 ACP         0.1980
     15 C4'        -0.1994    1.3333    2.4288 C.3       1 ACP         0.0815
     16 O4'        -1.1285    0.2356    2.5840 O.3       1 ACP        -0.4127
     17 C3'         1.0324    0.7610    1.7344 C.3       1 ACP         0.0890
     18 O3'         1.9175    0.2377    2.7247 O.3       1 ACP        -0.6221
     19 C2'         0.4468   -0.3802    0.9263 C.3       1 ACP         0.1067
     20 O2'         1.3993   -1.3703    0.5961 O.3       1 ACP        -0.6053
     21 C1'        -0.6159   -0.9100    1.8769 C.3       1 ACP         0.4223
     22 N9         -1.7127   -1.6108    1.2130 N.pl3     1 ACP        -0.6834
     23 C8         -2.8641   -1.0399    0.7392 C.ar      1 ACP         0.5614
     24 N7         -3.6659   -1.9257    0.1858 N.2       1 ACP        -0.5751
     25 C5         -3.0053   -3.1223    0.3069 C.ar      1 ACP        -0.2117
     26 C6         -3.3321   -4.4178   -0.0813 C.ar      1 ACP         0.7177
     27 N6         -4.5476   -4.6866   -0.7335 N.pl3     1 ACP        -0.9401
     28 N1         -2.4608   -5.4225    0.1773 N.ar      1 ACP        -0.8008
     29 C2         -1.3053   -5.1020    0.8081 C.ar      1 ACP         0.6565
     30 N3         -0.8788   -3.8921    1.2315 N.ar      1 ACP        -0.7061
     31 C4         -1.7870   -2.9477    0.9438 C.ar      1 ACP         0.5715
     32 HOG3       -2.3747    2.1695    4.8024 H         1 ACP         0.4226
     33 HOB2       -3.3438    6.7898    1.7939 H         1 ACP         0.4482
     34 H3B1       -2.9887    6.4914    5.6779 H         1 ACP         0.1012
     35 H3B2       -1.4840    5.5760    5.6955 H         1 ACP         0.1012
     36 H5'1       -1.7769    2.7851    2.1387 H         1 ACP         0.0481
     37 H5'2       -1.1653    2.0543    0.6320 H         1 ACP         0.0481
     38 H4'         0.0403    1.7078    3.4343 H         1 ACP         0.0904
     39 H3'         1.5906    1.4859    1.1353 H         1 ACP         0.0809
     40 HO3'        2.6839   -0.1150    2.2479 H         1 ACP         0.4528
     41 H2'        -0.0017    0.0018    0.0005 H         1 ACP         0.0594
     42 HO2'        2.0953   -0.9375    0.0709 H         1 ACP         0.4344
     43 H1'        -0.1998   -1.6319    2.6178 H         1 ACP         0.1127
     44 H8         -3.0609    0.0200    0.8250 H         1 ACP         0.1050
     45 HN61       -5.2046   -3.9433   -0.8775 H         1 ACP         0.4211
     46 HN62       -4.7849   -5.6332   -0.9625 H         1 ACP         0.4211
     47 H2         -0.6318   -5.9307    0.9993 H         1 ACP         0.0375
@<TRIPOS>BOND
     1    1    2 2
     2    1    3 1
     3    1    4 1
     4    1    8 1
     5    4   32 1
     6    5    6 2
     7    5    7 1
     8    5    8 1
     9    5   12 1
    10    7   33 1
    11    8   34 1
    12    8   35 1
    13    9   10 2
    14    9   11 1
    15    9   12 1
    16    9   13 1
    17   13   14 1
    18   14   15 1
    19   14   36 1
    20   14   37 1
    21   15   16 1
    22   15   17 1
    23   15   38 1
    24   16   21 1
    25   17   18 1
    26   17   19 1
    27   17   39 1
    28   18   40 1
    29   19   20 1
    30   19   21 1
    31   19   41 1
    32   20   42 1
    33   21   22 1
    34   21   43 1
    35   22   23 ar
    36   22   31 ar
    37   23   24 ar
    38   23   44 1
    39   24   25 ar
    40   25   26 ar
    41   25   31 ar
    42   26   27 1
    43   26   28 ar
    44   27   45 1
    45   27   46 1
    46   28   29 ar
    47   29   30 ar
    48   29   47 1
    49   30   31 ar
@<TRIPOS>SUBSTRUCTURE
     1 ACP         1 GROUP 0 A     ****
@<TRIPOS>MOLECULE
[[[5-(6-aminopurin-9-yl)-3,4-dihydroxy-tetrahydrofuran-2-yl]methoxy-oxido-phosphoryl]oxy-hydroxy-phosphoryl]methyl-hydroxy-phosphinate
   47    49     1     0     0
SMALL
USER_CHARGES

@<TRIPOS>ATOM
      1 PG          0.2370    5.6087    6.0442 P.3       1 ACP         1.3516
      2 O1G         0.0573    4.1710    5.6154 O.co2     1 ACP        -0.8379
      3 O2G        -0.6866    6.2758    7.0370 O.co2     1 ACP        -0.8379
      4 O3G         1.7848    5.8492    6.4985 O.3       1 ACP        -0.7980
      5 PB         -1.1398    6.7157    3.3547 P.3       1 ACP         1.7688
      6 O1B        -0.9300    7.6162    2.1744 O.2       1 ACP        -0.9167
      7 O2B        -2.4003    7.1033    4.2889 O.3       1 ACP        -0.8201
      8 C3B         0.2445    6.6431    4.5115 C.3       1 ACP        -0.6097
      9 PA         -2.5403    4.4097    2.1396 P.3       1 ACP         1.5979
     10 O1A        -2.3645    4.8018    0.6886 O.co2     1 ACP        -0.8617
     11 O2A        -3.8743    4.5856    2.8318 O.co2     1 ACP        -0.8617
     12 O3A        -1.3835    5.1562    3.0160 O.3       1 ACP        -0.8283
     13 O5'        -2.0402    2.8619    2.3131 O.3       1 ACP        -0.5783
     14 C5'        -0.8811    2.4285    1.6206 C.3       1 ACP         0.1980
     15 C4'        -0.1994    1.3333    2.4288 C.3       1 ACP         0.0815
     16 O4'        -1.1285    0.2356    2.5840 O.3       1 ACP        -0.4127
     17 C3'         1.0324    0.7610    1.7344 C.3       1 ACP         0.0890
     18 O3'         1.9175    0.2377    2.7247 O.3       1 ACP        -0.6221
     19 C2'         0.4468   -0.3802    0.9263 C.3       1 ACP         0.1067
     20 O2'         1.3993   -1.3703    0.5961 O.3       1 ACP        -0.6053
     21 C1'        -0.6159   -0.9100    1.8769 C.3       1 ACP         0.4223
     22 N9         -1.7127   -1.6108    1.2130 N.pl3     1 ACP        -0.6834
     23 C8         -1.7712   -2.9546    0.9544 C.ar      1 ACP         0.5614
     24 N7         -2.8883   -3.2948    0.3462 N.2       1 ACP        -0.5751
     25 C5         -3.5834   -2.1202    0.2043 C.ar      1 ACP        -0.2117
     26 C6         -4.8225   -1.8251   -0.3554 C.ar      1 ACP         0.7177
     27 N6         -5.6154   -2.8395   -0.9189 N.pl3     1 ACP        -0.9401
     28 N1         -5.2589   -0.5425   -0.3507 N.ar      1 ACP        -0.8008
     29 C2         -4.4510    0.3913    0.2069 C.ar      1 ACP         0.6565
     30 N3         -3.2368    0.2296    0.7767 N.ar      1 ACP        -0.7061
     31 C4         -2.8684   -1.0596    0.7376 C.ar      1 ACP         0.5715
     32 HOG3        2.1417    5.3186    7.2425 H         1 ACP         0.4226
     33 HOB2       -3.2985    7.1122    3.8949 H         1 ACP         0.4482
     34 H3B1        0.4567    7.6672    4.8389 H         1 ACP         0.1012
     35 H3B2        1.1167    6.3011    3.9442 H         1 ACP         0.1012
     36 H5'1       -1.1770    2.0503    0.6369 H         1 ACP         0.0481
     37 H5'2       -0.2082    3.2815    1.4877 H         1 ACP         0.0481
     38 H4'         0.0403    1.7078    3.4343 H         1 ACP         0.0904
     39 H3'         1.5906    1.4859    1.1353 H         1 ACP         0.0809
     40 HO3'        2.6839   -0.1150    2.2479 H         1 ACP         0.4528
     41 H2'        -0.0017    0.0018    0.0005 H         1 ACP         0.0594
     42 HO2'        2.0953   -0.9375    0.0709 H         1 ACP         0.4344
     43 H1'        -0.1998   -1.6319    2.6178 H         1 ACP         0.1127
     44 H8         -0.9745   -3.6312    1.2318 H         1 ACP         0.1050
     45 HN61       -5.2619   -3.7766   -0.9586 H         1 ACP         0.4211
     46 HN62       -6.4834   -2.5990   -1.3590 H         1 ACP         0.4211
     47 H2         -4.8317    1.4071    0.1930 H         1 ACP         0.0375
@<TRIPOS>BOND
     1    1    2 2
     2    1    3 1
     3    1    4 1
     4    1    8 1
     5    4   32 1
     6    5    6 2
     7    5    7 1
     8    5    8 1
     9    5   12 1
    10    7   33 1
    11    8   34 1
    12    8   35 1
    13    9   10 2
    14    9   11 1
    15    9   12 1
    16    9   13 1
    17   13   14 1
    18   14   15 1
    19   14   36 1
    20   14   37 1
    21   15   16 1
    22   15   17 1
    23   15   38 1
    24   16   21 1
    25   17   18 1
    26   17   19 1
    27   17   39 1
    28   18   40 1
    29   19   20 1
    30   19   21 1
    31   19   41 1
    32   20   42 1
    33   21   22 1
    34   21   43 1
    35   22   23 ar
    36   22   31 ar
    37   23   24 ar
    38   23   44 1
    39   24   25 ar
    40   25   26 ar
    41   25   31 ar
    42   26   27 1
    43   26   28 ar
    44   27   45 1
    45   27   46 1
    46   28   29 ar
    47   29   30 ar
    48   29   47 1
    49   30   31 ar
@<TRIPOS>SUBSTRUCTURE
     1 ACP         1 GROUP 0 A     ****
@<TRIPOS>MOLECULE
[[[5-(6-aminopurin-9-yl)-3,4-dihydroxy-tetrahydrofuran-2-yl]methoxy-oxido-phosphoryl]oxy-hydroxy-phosphoryl]methyl-hydroxy-phosphinate
   47    49     1     0     0
SMALL
USER_CHARGES

@<TRIPOS>ATOM
      1 PG          1.9394    6.0771    4.0363 P.3       1 ACP         1.3516
      2 O1G         1.8161    4.6548    3.5411 O.co2     1 ACP        -0.8379
      3 O2G         2.8771    6.4625    5.1570 O.co2     1 ACP        -0.8379
      4 O3G         2.1739    7.0742    2.7672 O.3       1 ACP        -0.7980
      5 PB         -1.1398    6.7157    3.3547 P.3       1 ACP         1.7688
      6 O1B        -0.9300    7.6162    2.1744 O.2       1 ACP        -0.9167
      7 O2B        -2.4003    7.1033    4.2889 O.3       1 ACP        -0.8201
      8 C3B         0.2445    6.6431    4.5115 C.3       1 ACP        -0.6097
      9 PA         -2.5403    4.4097    2.1396 P.3       1 ACP         1.5979
     10 O1A        -2.3645    4.8018    0.6886 O.co2     1 ACP        -0.8617
     11 O2A        -3.8743    4.5856    2.8318 O.co2     1 ACP        -0.8617
     12 O3A        -1.3835    5.1562    3.0160 O.3       1 ACP        -0.8283
     13 O5'        -2.0402    2.8619    2.3131 O.3       1 ACP        -0.5783
     14 C5'        -0.8811    2.4285    1.6206 C.3       1 ACP         0.1980
     15 C4'        -0.1994    1.3333    2.4288 C.3       1 ACP         0.0815
     16 O4'        -1.1285    0.2356    2.5840 O.3       1 ACP        -0.4127
     17 C3'         1.0324    0.7610    1.7344 C.3       1 ACP         0.0890
     18 O3'         1.9175    0.2377    2.7247 O.3       1 ACP        -0.6221
     19 C2'         0.4468   -0.3802    0.9263 C.3       1 ACP         0.1067
     20 O2'         1.3993   -1.3703    0.5961 O.3       1 ACP        -0.6053
     21 C1'        -0.6159   -0.9100    1.8769 C.3       1 ACP         0.4223
     22 N9         -1.7127   -1.6108    1.2130 N.pl3     1 ACP        -0.6834
     23 C8         -1.7712   -2.9546    0.9544 C.ar      1 ACP         0.5614
     24 N7         -2.8883   -3.2948    0.3462 N.2       1 ACP        -0.5751
     25 C5         -3.5834   -2.1202    0.2043 C.ar      1 ACP        -0.2117
     26 C6         -4.8225   -1.8251   -0.3554 C.ar      1 ACP         0.7177
     27 N6         -5.6154   -2.8395   -0.9189 N.pl3     1 ACP        -0.9401
     28 N1         -5.2589   -0.5425   -0.3507 N.ar      1 ACP        -0.8008
     29 C2         -4.4510    0.3913    0.2069 C.ar      1 ACP         0.6565
     30 N3         -3.2368    0.2296    0.7767 N.ar      1 ACP        -0.7061
     31 C4         -2.8684   -1.0596    0.7376 C.ar      1 ACP         0.5715
     32 HOG3        2.9642    6.9353    2.2028 H         1 ACP         0.4226
     33 HOB2       -3.2985    7.1122    3.8949 H         1 ACP         0.4482
     34 H3B1       -0.0602    6.0114    5.3536 H         1 ACP         0.1012
     35 H3B2        0.3848    7.6556    4.9050 H         1 ACP         0.1012
     36 H5'1       -1.1770    2.0503    0.6369 H         1 ACP         0.0481
     37 H5'2       -0.2082    3.2815    1.4877 H         1 ACP         0.0481
     38 H4'         0.0403    1.7078    3.4343 H         1 ACP         0.0904
     39 H3'         1.5906    1.4859    1.1353 H         1 ACP         0.0809
     40 HO3'        2.1521    0.9800    3.3017 H         1 ACP         0.4528
     41 H2'        -0.0017    0.0018    0.0005 H         1 ACP         0.0594
     42 HO2'        0.9369   -2.0558    0.0825 H         1 ACP         0.4344
     43 H1'        -0.1998   -1.6319    2.6178 H         1 ACP         0.1127
     44 H8         -0.9745   -3.6312    1.2318 H         1 ACP         0.1050
     45 HN61       -5.2619   -3.7766   -0.9586 H         1 ACP         0.4211
     46 HN62       -6.4834   -2.5990   -1.3590 H         1 ACP         0.4211
     47 H2         -4.8317    1.4071    0.1930 H         1 ACP         0.0375
@<TRIPOS>BOND
     1    1    2 2
     2    1    3 1
     3    1    4 1
     4    1    8 1
     5    4   32 1
     6    5    6 2
     7    5    7 1
     8    5    8 1
     9    5   12 1
    10    7   33 1
    11    8   34 1
    12    8   35 1
    13    9   10 2
    14    9   11 1
    15    9   12 1
    16    9   13 1
    17   13   14 1
    18   14   15 1
    19   14   36 1
    20   14   37 1
    21   15   16 1
    22   15   17 1
    23   15   38 1
    24   16   21 1
    25   17   18 1
    26   17   19 1
    27   17   39 1
    28   18   40 1
    29   19   20 1
    30   19   21 1
    31   19   41 1
    32   20   42 1
    33   21   22 1
    34   21   43 1
    35   22   23 ar
    36   22   31 ar
    37   23   24 ar
    38   23   44 1
    39   24   25 ar
    40   25   26 ar
    41   25   31 ar
    42   26   27 1
    43   26   28 ar
    44   27   45 1
    45   27   46 1
    46   28   29 ar
    47   29   30 ar
    48   29   47 1
    49   30   31 ar
@<TRIPOS>SUBSTRUCTURE
     1 ACP         1 GROUP 0 A     ****
@<TRIPOS>MOLECULE
[[[5-(6-aminopurin-9-yl)-3,4-dihydroxy-tetrahydrofuran-2-yl]methoxy-oxido-phosphoryl]oxy-hydroxy-phosphoryl]methyl-hydroxy-phosphinate
   47    49     1     0     0
SMALL
USER_CHARGES

@<TRIPOS>ATOM
      1 PG         -3.0199    6.5239    4.7535 P.3       1 ACP         1.3516
      2 O1G        -4.1996    6.2771    5.6650 O.co2     1 ACP        -0.8379
      3 O2G        -2.1585    7.7604    4.8660 O.co2     1 ACP        -0.8379
      4 O3G        -2.0670    5.2005    4.7305 O.3       1 ACP        -0.7980
      5 PB         -2.5842    6.6696    1.5687 P.3       1 ACP         1.7688
      6 O1B        -1.9034    8.0033    1.4926 O.2       1 ACP        -0.9167
      7 O2B        -3.5576    6.3321    0.3236 O.3       1 ACP        -0.8201
      8 C3B        -3.6409    6.4365    3.0140 C.3       1 ACP        -0.6097
      9 PA         -0.4663    4.8326    0.6227 P.3       1 ACP         1.5979
     10 O1A         0.6760    5.8249    0.6052 O.co2     1 ACP        -0.8617
     11 O2A        -1.1288    4.3936   -0.6650 O.co2     1 ACP        -0.8617
     12 O3A        -1.6097    5.3851    1.6478 O.3       1 ACP        -0.8283
     13 O5'         0.0181    3.5132    1.4596 O.3       1 ACP        -0.5783
     14 C5'        -0.8811    2.4285    1.6206 C.3       1 ACP         0.1980
     15 C4'        -0.1994    1.3333    2.4288 C.3       1 ACP         0.0815
     16 O4'        -1.1285    0.2356    2.5840 O.3       1 ACP        -0.4127
     17 C3'         1.0324    0.7610    1.7344 C.3       1 ACP         0.0890
     18 O3'         1.9175    0.2377    2.7247 O.3       1 ACP        -0.6221
     19 C2'         0.4468   -0.3802    0.9263 C.3       1 ACP         0.1067
     20 O2'         1.3993   -1.3703    0.5961 O.3       1 ACP        -0.6053
     21 C1'        -0.6159   -0.9100    1.8769 C.3       1 ACP         0.4223
     22 N9         -1.7127   -1.6108    1.2130 N.pl3     1 ACP        -0.6834
     23 C8         -1.7712   -2.9546    0.9544 C.ar      1 ACP         0.5614
     24 N7         -2.8883   -3.2948    0.3462 N.2       1 ACP        -0.5751
     25 C5         -3.5834   -2.1202    0.2043 C.ar      1 ACP        -0.2117
     26 C6         -4.8225   -1.8251   -0.3554 C.ar      1 ACP         0.7177
     27 N6         -5.6154   -2.8395   -0.9189 N.pl3     1 ACP        -0.9401
     28 N1         -5.2589   -0.5425   -0.3507 N.ar      1 ACP        -0.8008
     29 C2         -4.4510    0.3913    0.2069 C.ar      1 ACP         0.6565
     30 N3         -3.2368    0.2296    0.7767 N.ar      1 ACP        -0.7061
     31 C4         -2.8684   -1.0596    0.7376 C.ar      1 ACP         0.5715
     32 HOG3       -1.6725    4.8934    5.5745 H         1 ACP         0.4226
     33 HOB2       -3.1787    6.3004   -0.5806 H         1 ACP         0.4482
     34 H3B1       -4.1267    5.4592    2.9151 H         1 ACP         0.1012
     35 H3B2       -4.4303    7.1937    2.9575 H         1 ACP         0.1012
     36 H5'1       -1.7769    2.7851    2.1387 H         1 ACP         0.0481
     37 H5'2       -1.1653    2.0543    0.6320 H         1 ACP         0.0481
     38 H4'         0.0403    1.7078    3.4343 H         1 ACP         0.0904
     39 H3'         1.5906    1.4859    1.1353 H         1 ACP         0.0809
     40 HO3'        2.6839   -0.1150    2.2479 H         1 ACP         0.4528
     41 H2'        -0.0017    0.0018    0.0005 H         1 ACP         0.0594
     42 HO2'        2.0953   -0.9375    0.0709 H         1 ACP         0.4344
     43 H1'        -0.1998   -1.6319    2.6178 H         1 ACP         0.1127
     44 H8         -0.9745   -3.6312    1.2318 H         1 ACP         0.1050
     45 HN61       -5.2619   -3.7766   -0.9586 H         1 ACP         0.4211
     46 HN62       -6.4834   -2.5990   -1.3590 H         1 ACP         0.4211
     47 H2         -4.8317    1.4071    0.1930 H         1 ACP         0.0375
@<TRIPOS>BOND
     1    1    2 2
     2    1    3 1
     3    1    4 1
     4    1    8 1
     5    4   32 1
     6    5    6 2
     7    5    7 1
     8    5    8 1
     9    5   12 1
    10    7   33 1
    11    8   34 1
    12    8   35 1
    13    9   10 2
    14    9   11 1
    15    9   12 1
    16    9   13 1
    17   13   14 1
    18   14   15 1
    19   14   36 1
    20   14   37 1
    21   15   16 1
    22   15   17 1
    23   15   38 1
    24   16   21 1
    25   17   18 1
    26   17   19 1
    27   17   39 1
    28   18   40 1
    29   19   20 1
    30   19   21 1
    31   19   41 1
    32   20   42 1
    33   21   22 1
    34   21   43 1
    35   22   23 ar
    36   22   31 ar
    37   23   24 ar
    38   23   44 1
    39   24   25 ar
    40   25   26 ar
    41   25   31 ar
    42   26   27 1
    43   26   28 ar
    44   27   45 1
    45   27   46 1
    46   28   29 ar
    47   29   30 ar
    48   29   47 1
    49   30   31 ar
@<TRIPOS>SUBSTRUCTURE
     1 ACP         1 GROUP 0 A     ****
@<TRIPOS>MOLECULE
[[[5-(6-aminopurin-9-yl)-3,4-dihydroxy-tetrahydrofuran-2-yl]methoxy-oxido-phosphoryl]oxy-hydroxy-phosphoryl]methyl-hydroxy-phosphinate
   47    49     1     0     0
SMALL
USER_CHARGES

@<TRIPOS>ATOM
      1 PG         -3.4338    3.7517   -2.6846 P.3       1 ACP         1.3516
      2 O1G        -2.0402    4.2640   -2.4040 O.co2     1 ACP        -0.8379
      3 O2G        -4.1612    4.0572   -3.9735 O.co2     1 ACP        -0.8379
      4 O3G        -3.4887    2.1468   -2.3993 O.3       1 ACP        -0.7980
      5 PB         -4.2332    3.8468    0.4309 P.3       1 ACP         1.7688
      6 O1B        -4.2643    2.3728    0.7033 O.2       1 ACP        -0.9167
      7 O2B        -5.3305    4.7109    1.2438 O.3       1 ACP        -0.8201
      8 C3B        -4.5154    4.3079   -1.2918 C.3       1 ACP        -0.6097
      9 PA         -2.0038    4.7531    2.1525 P.3       1 ACP         1.5979
     10 O1A        -2.9393    5.2969    3.2104 O.co2     1 ACP        -0.8617
     11 O2A        -0.6860    5.4370    1.8604 O.co2     1 ACP        -0.8617
     12 O3A        -2.8410    4.5946    0.7605 O.3       1 ACP        -0.8283
     13 O5'        -1.7337    3.1724    2.4753 O.3       1 ACP        -0.5783
     14 C5'        -0.8811    2.4285    1.6206 C.3       1 ACP         0.1980
     15 C4'        -0.1994    1.3333    2.4288 C.3       1 ACP         0.0815
     16 O4'        -1.1285    0.2356    2.5840 O.3       1 ACP        -0.4127
     17 C3'         1.0324    0.7610    1.7344 C.3       1 ACP         0.0890
     18 O3'         1.9175    0.2377    2.7247 O.3       1 ACP        -0.6221
     19 C2'         0.4468   -0.3802    0.9263 C.3       1 ACP         0.1067
     20 O2'         1.3993   -1.3703    0.5961 O.3       1 ACP        -0.6053
     21 C1'        -0.6159   -0.9100    1.8769 C.3       1 ACP         0.4223
     22 N9         -1.7127   -1.6108    1.2130 N.pl3     1 ACP        -0.6834
     23 C8         -2.8641   -1.0399    0.7392 C.ar      1 ACP         0.5614
     24 N7         -3.6659   -1.9257    0.1858 N.2       1 ACP        -0.5751
     25 C5         -3.0053   -3.1223    0.3069 C.ar      1 ACP        -0.2117
     26 C6         -3.3321   -4.4178   -0.0813 C.ar      1 ACP         0.7177
     27 N6         -4.5476   -4.6866   -0.7335 N.pl3     1 ACP        -0.9401
     28 N1         -2.4608   -5.4225    0.1773 N.ar      1 ACP        -0.8008
     29 C2         -1.3053   -5.1020    0.8081 C.ar      1 ACP         0.6565
     30 N3         -0.8788   -3.8921    1.2315 N.ar      1 ACP        -0.7061
     31 C4         -1.7870   -2.9477    0.9438 C.ar      1 ACP         0.5715
     32 HOG3       -2.8964    1.5594   -2.9155 H         1 ACP         0.4226
     33 HOB2       -5.3132    4.6988    2.2244 H         1 ACP         0.4482
     34 H3B1       -4.5351    5.4024   -1.3429 H         1 ACP         0.1012
     35 H3B2       -5.5187    3.9569   -1.5557 H         1 ACP         0.1012
     36 H5'1       -1.4802    1.9928    0.8147 H         1 ACP         0.0481
     37 H5'2       -0.1369    3.1042    1.1873 H         1 ACP         0.0481
     38 H4'         0.0403    1.7078    3.4343 H         1 ACP         0.0904
     39 H3'         1.5906    1.4859    1.1353 H         1 ACP         0.0809
     40 HO3'        2.6839   -0.1150    2.2479 H         1 ACP         0.4528
     41 H2'        -0.0017    0.0018    0.0005 H         1 ACP         0.0594
     42 HO2'        2.0953   -0.9375    0.0709 H         1 ACP         0.4344
     43 H1'        -0.1998   -1.6319    2.6178 H         1 ACP         0.1127
     44 H8         -3.0609    0.0200    0.8250 H         1 ACP         0.1050
     45 HN61       -5.2046   -3.9433   -0.8775 H         1 ACP         0.4211
     46 HN62       -4.7849   -5.6332   -0.9625 H         1 ACP         0.4211
     47 H2         -0.6318   -5.9307    0.9993 H         1 ACP         0.0375
@<TRIPOS>BOND
     1    1    2 2
     2    1    3 1
     3    1    4 1
     4    1    8 1
     5    4   32 1
     6    5    6 2
     7    5    7 1
     8    5    8 1
     9    5   12 1
    10    7   33 1
    11    8   34 1
    12    8   35 1
    13    9   10 2
    14    9   11 1
    15    9   12 1
    16    9   13 1
    17   13   14 1
    18   14   15 1
    19   14   36 1
    20   14   37 1
    21   15   16 1
    22   15   17 1
    23   15   38 1
    24   16   21 1
    25   17   18 1
    26   17   19 1
    27   17   39 1
    28   18   40 1
    29   19   20 1
    30   19   21 1
    31   19   41 1
    32   20   42 1
    33   21   22 1
    34   21   43 1
    35   22   23 ar
    36   22   31 ar
    37   23   24 ar
    38   23   44 1
    39   24   25 ar
    40   25   26 ar
    41   25   31 ar
    42   26   27 1
    43   26   28 ar
    44   27   45 1
    45   27   46 1
    46   28   29 ar
    47   29   30 ar
    48   29   47 1
    49   30   31 ar
@<TRIPOS>SUBSTRUCTURE
     1 ACP         1 GROUP 0 A     ****
@<TRIPOS>MOLECULE
[[[5-(6-aminopurin-9-yl)-3,4-dihydroxy-tetrahydrofuran-2-yl]methoxy-oxido-phosphoryl]oxy-hydroxy-phosphoryl]methyl-hydroxy-phosphinate
   47    49     1     0     0
SMALL
USER_CHARGES

@<TRIPOS>ATOM
      1 PG         -0.4603    5.1880   -2.3682 P.3       1 ACP         1.3516
      2 O1G         0.0958    4.1341   -1.4390 O.co2     1 ACP        -0.8379
      3 O2G         0.4312    6.0995   -3.1796 O.co2     1 ACP        -0.8379
      4 O3G        -1.5778    4.5131   -3.3459 O.3       1 ACP        -0.7980
      5 PB         -3.0515    5.6370   -0.5141 P.3       1 ACP         1.7688
      6 O1B        -4.0791    4.9988   -1.4000 O.2       1 ACP        -0.9167
      7 O2B        -3.5775    6.9140    0.3251 O.3       1 ACP        -0.8201
      8 C3B        -1.5898    6.2601   -1.3713 C.3       1 ACP        -0.6097
      9 PA         -3.0801    3.8628    1.8538 P.3       1 ACP         1.5979
     10 O1A        -3.9502    2.7657    1.2800 O.co2     1 ACP        -0.8617
     11 O2A        -3.6415    4.8527    2.8511 O.co2     1 ACP        -0.8617
     12 O3A        -2.4039    4.6816    0.6145 O.3       1 ACP        -0.8283
     13 O5'        -1.7337    3.1724    2.4753 O.3       1 ACP        -0.5783
     14 C5'        -0.8811    2.4285    1.6206 C.3       1 ACP         0.1980
     15 C4'        -0.1994    1.3333    2.4288 C.3       1 ACP         0.0815
     16 O4'        -1.1285    0.2356    2.5840 O.3       1 ACP        -0.4127
     17 C3'         1.0324    0.7610    1.7344 C.3       1 ACP         0.0890
     18 O3'         1.9175    0.2377    2.7247 O.3       1 ACP        -0.6221
     19 C2'         0.4468   -0.3802    0.9263 C.3       1 ACP         0.1067
     20 O2'         1.3993   -1.3703    0.5961 O.3       1 ACP        -0.6053
     21 C1'        -0.6159   -0.9100    1.8769 C.3       1 ACP         0.4223
     22 N9         -1.7127   -1.6108    1.2130 N.pl3     1 ACP        -0.6834
     23 C8         -2.8641   -1.0399    0.7392 C.ar      1 ACP         0.5614
     24 N7         -3.6659   -1.9257    0.1858 N.2       1 ACP        -0.5751
     25 C5         -3.0053   -3.1223    0.3069 C.ar      1 ACP        -0.2117
     26 C6         -3.3321   -4.4178   -0.0813 C.ar      1 ACP         0.7177
     27 N6         -4.5476   -4.6866   -0.7335 N.pl3     1 ACP        -0.9401
     28 N1         -2.4608   -5.4225    0.1773 N.ar      1 ACP        -0.8008
     29 C2         -1.3053   -5.1020    0.8081 C.ar      1 ACP         0.6565
     30 N3         -0.8788   -3.8921    1.2315 N.ar      1 ACP        -0.7061
     31 C4         -1.7870   -2.9477    0.9438 C.ar      1 ACP         0.5715
     32 HOG3       -1.3017    3.7790   -3.9351 H         1 ACP         0.4226
     33 HOB2       -4.3222    6.7962    0.9525 H         1 ACP         0.4482
     34 H3B1       -0.9565    6.7573   -0.6278 H         1 ACP         0.1012
     35 H3B2       -1.9333    7.0327   -2.0674 H         1 ACP         0.1012
     36 H5'1       -1.4802    1.9928    0.8147 H         1 ACP         0.0481
     37 H5'2       -0.1369    3.1042    1.1873 H         1 ACP         0.0481
     38 H4'         0.0403    1.7078    3.4343 H         1 ACP         0.0904
     39 H3'         1.5906    1.4859    1.1353 H         1 ACP         0.0809
     40 HO3'        2.6839   -0.1150    2.2479 H         1 ACP         0.4528
     41 H2'        -0.0017    0.0018    0.0005 H         1 ACP         0.0594
     42 HO2'        2.0953   -0.9375    0.0709 H         1 ACP         0.4344
     43 H1'        -0.1998   -1.6319    2.6178 H         1 ACP         0.1127
     44 H8         -3.0609    0.0200    0.8250 H         1 ACP         0.1050
     45 HN61       -5.2046   -3.9433   -0.8775 H         1 ACP         0.4211
     46 HN62       -4.7849   -5.6332   -0.9625 H         1 ACP         0.4211
     47 H2         -0.6318   -5.9307    0.9993 H         1 ACP         0.0375
@<TRIPOS>BOND
     1    1    2 2
     2    1    3 1
     3    1    4 1
     4    1    8 1
     5    4   32 1
     6    5    6 2
     7    5    7 1
     8    5    8 1
     9    5   12 1
    10    7   33 1
    11    8   34 1
    12    8   35 1
    13    9   10 2
    14    9   11 1
    15    9   12 1
    16    9   13 1
    17   13   14 1
    18   14   15 1
    19   14   36 1
    20   14   37 1
    21   15   16 1
    22   15   17 1
    23   15   38 1
    24   16   21 1
    25   17   18 1
    26   17   19 1
    27   17   39 1
    28   18   40 1
    29   19   20 1
    30   19   21 1
    31   19   41 1
    32   20   42 1
    33   21   22 1
    34   21   43 1
    35   22   23 ar
    36   22   31 ar
    37   23   24 ar
    38   23   44 1
    39   24   25 ar
    40   25   26 ar
    41   25   31 ar
    42   26   27 1
    43   26   28 ar
    44   27   45 1
    45   27   46 1
    46   28   29 ar
    47   29   30 ar
    48   29   47 1
    49   30   31 ar
@<TRIPOS>SUBSTRUCTURE
     1 ACP         1 GROUP 0 A     ****
@<TRIPOS>MOLECULE
[[[5-(6-aminopurin-9-yl)-3,4-dihydroxy-tetrahydrofuran-2-yl]methoxy-oxido-phosphoryl]oxy-hydroxy-phosphoryl]methyl-hydroxy-phosphinate
   47    49     1     0     0
SMALL
USER_CHARGES

@<TRIPOS>ATOM
      1 PG          1.1649    7.4114    3.0048 P.3       1 ACP         1.3516
      2 O1G         1.1550    5.9601    3.4254 O.co2     1 ACP        -0.8379
      3 O2G         0.5893    8.5066    3.8726 O.co2     1 ACP        -0.8379
      4 O3G         2.6695    7.8287    2.5335 O.3       1 ACP        -0.7980
      5 PB         -1.3773    7.0013    1.0753 P.3       1 ACP         1.7688
      6 O1B        -1.8611    7.1655   -0.3343 O.2       1 ACP        -0.9167
      7 O2B        -2.2137    7.8313    2.1812 O.3       1 ACP        -0.8201
      8 C3B         0.3311    7.5126    1.3575 C.3       1 ACP        -0.6097
      9 PA         -2.5929    4.4189    1.8558 P.3       1 ACP         1.5979
     10 O1A        -3.1012    4.0084    0.4909 O.co2     1 ACP        -0.8617
     11 O2A        -3.5438    4.9443    2.9091 O.co2     1 ACP        -0.8617
     12 O3A        -1.3812    5.4927    1.6499 O.3       1 ACP        -0.8283
     13 O5'        -1.7337    3.1724    2.4753 O.3       1 ACP        -0.5783
     14 C5'        -0.8811    2.4285    1.6206 C.3       1 ACP         0.1980
     15 C4'        -0.1994    1.3333    2.4288 C.3       1 ACP         0.0815
     16 O4'        -1.1285    0.2356    2.5840 O.3       1 ACP        -0.4127
     17 C3'         1.0324    0.7610    1.7344 C.3       1 ACP         0.0890
     18 O3'         1.9175    0.2377    2.7247 O.3       1 ACP        -0.6221
     19 C2'         0.4468   -0.3802    0.9263 C.3       1 ACP         0.1067
     20 O2'         1.3993   -1.3703    0.5961 O.3       1 ACP        -0.6053
     21 C1'        -0.6159   -0.9100    1.8769 C.3       1 ACP         0.4223
     22 N9         -1.7127   -1.6108    1.2130 N.pl3     1 ACP        -0.6834
     23 C8         -2.8641   -1.0399    0.7392 C.ar      1 ACP         0.5614
     24 N7         -3.6659   -1.9257    0.1858 N.2       1 ACP        -0.5751
     25 C5         -3.0053   -3.1223    0.3069 C.ar      1 ACP        -0.2117
     26 C6         -3.3321   -4.4178   -0.0813 C.ar      1 ACP         0.7177
     27 N6         -4.5476   -4.6866   -0.7335 N.pl3     1 ACP        -0.9401
     28 N1         -2.4608   -5.4225    0.1773 N.ar      1 ACP        -0.8008
     29 C2         -1.3053   -5.1020    0.8081 C.ar      1 ACP         0.6565
     30 N3         -0.8788   -3.8921    1.2315 N.ar      1 ACP        -0.7061
     31 C4         -1.7870   -2.9477    0.9438 C.ar      1 ACP         0.5715
     32 HOG3        3.4015    7.7499    3.1819 H         1 ACP         0.4226
     33 HOB2       -3.1718    7.6498    2.2870 H         1 ACP         0.4482
     34 H3B1        0.4218    8.5565    1.0363 H         1 ACP         0.1012
     35 H3B2        0.9578    6.9155    0.6865 H         1 ACP         0.1012
     36 H5'1       -1.4802    1.9928    0.8147 H         1 ACP         0.0481
     37 H5'2       -0.1369    3.1042    1.1873 H         1 ACP         0.0481
     38 H4'         0.0403    1.7078    3.4343 H         1 ACP         0.0904
     39 H3'         1.5906    1.4859    1.1353 H         1 ACP         0.0809
     40 HO3'        2.6839   -0.1150    2.2479 H         1 ACP         0.4528
     41 H2'        -0.0017    0.0018    0.0005 H         1 ACP         0.0594
     42 HO2'        0.9369   -2.0558    0.0825 H         1 ACP         0.4344
     43 H1'        -0.1998   -1.6319    2.6178 H         1 ACP         0.1127
     44 H8         -3.0609    0.0200    0.8250 H         1 ACP         0.1050
     45 HN61       -5.2046   -3.9433   -0.8775 H         1 ACP         0.4211
     46 HN62       -4.7849   -5.6332   -0.9625 H         1 ACP         0.4211
     47 H2         -0.6318   -5.9307    0.9993 H         1 ACP         0.0375
@<TRIPOS>BOND
     1    1    2 2
     2    1    3 1
     3    1    4 1
     4    1    8 1
     5    4   32 1
     6    5    6 2
     7    5    7 1
     8    5    8 1
     9    5   12 1
    10    7   33 1
    11    8   34 1
    12    8   35 1
    13    9   10 2
    14    9   11 1
    15    9   12 1
    16    9   13 1
    17   13   14 1
    18   14   15 1
    19   14   36 1
    20   14   37 1
    21   15   16 1
    22   15   17 1
    23   15   38 1
    24   16   21 1
    25   17   18 1
    26   17   19 1
    27   17   39 1
    28   18   40 1
    29   19   20 1
    30   19   21 1
    31   19   41 1
    32   20   42 1
    33   21   22 1
    34   21   43 1
    35   22   23 ar
    36   22   31 ar
    37   23   24 ar
    38   23   44 1
    39   24   25 ar
    40   25   26 ar
    41   25   31 ar
    42   26   27 1
    43   26   28 ar
    44   27   45 1
    45   27   46 1
    46   28   29 ar
    47   29   30 ar
    48   29   47 1
    49   30   31 ar
@<TRIPOS>SUBSTRUCTURE
     1 ACP         1 GROUP 0 A     ****
@<TRIPOS>MOLECULE
[[[5-(6-aminopurin-9-yl)-3,4-dihydroxy-tetrahydrofuran-2-yl]methoxy-oxido-phosphoryl]oxy-hydroxy-phosphoryl]methyl-hydroxy-phosphinate
   47    49     1     0     0
SMALL
USER_CHARGES

@<TRIPOS>ATOM
      1 PG         -4.9473    4.8210    0.9242 P.3       1 ACP         1.3516
      2 O1G        -4.0766    3.9136    1.7620 O.co2     1 ACP        -0.8379
      3 O2G        -5.6279    4.3455   -0.3385 O.co2     1 ACP        -0.8379
      4 O3G        -6.0404    5.5597    1.8831 O.3       1 ACP        -0.7980
      5 PB         -2.3927    6.2106   -0.4533 P.3       1 ACP         1.7688
      6 O1B        -1.7257    7.5298   -0.7039 O.2       1 ACP        -0.9167
      7 O2B        -2.8027    5.3931   -1.7857 O.3       1 ACP        -0.8201
      8 C3B        -3.9333    6.3032    0.4836 C.3       1 ACP        -0.6097
      9 PA         -0.0886    4.4447    0.1191 P.3       1 ACP         1.5979
     10 O1A         0.9772    5.5156    0.2036 O.co2     1 ACP        -0.8617
     11 O2A        -0.1967    3.5562   -1.1009 O.co2     1 ACP        -0.8617
     12 O3A        -1.5378    5.1403    0.4009 O.3       1 ACP        -0.8283
     13 O5'         0.0181    3.5132    1.4596 O.3       1 ACP        -0.5783
     14 C5'        -0.8811    2.4285    1.6206 C.3       1 ACP         0.1980
     15 C4'        -0.1994    1.3333    2.4288 C.3       1 ACP         0.0815
     16 O4'        -1.1285    0.2356    2.5840 O.3       1 ACP        -0.4127
     17 C3'         1.0324    0.7610    1.7344 C.3       1 ACP         0.0890
     18 O3'         1.9175    0.2377    2.7247 O.3       1 ACP        -0.6221
     19 C2'         0.4468   -0.3802    0.9263 C.3       1 ACP         0.1067
     20 O2'         1.3993   -1.3703    0.5961 O.3       1 ACP        -0.6053
     21 C1'        -0.6159   -0.9100    1.8769 C.3       1 ACP         0.4223
     22 N9         -1.7127   -1.6108    1.2130 N.pl3     1 ACP        -0.6834
     23 C8         -1.7712   -2.9546    0.9544 C.ar      1 ACP         0.5614
     24 N7         -2.8883   -3.2948    0.3462 N.2       1 ACP        -0.5751
     25 C5         -3.5834   -2.1202    0.2043 C.ar      1 ACP        -0.2117
     26 C6         -4.8225   -1.8251   -0.3554 C.ar      1 ACP         0.7177
     27 N6         -5.6154   -2.8395   -0.9189 N.pl3     1 ACP        -0.9401
     28 N1         -5.2589   -0.5425   -0.3507 N.ar      1 ACP        -0.8008
     29 C2         -4.4510    0.3913    0.2069 C.ar      1 ACP         0.6565
     30 N3         -3.2368    0.2296    0.7767 N.ar      1 ACP        -0.7061
     31 C4         -2.8684   -1.0596    0.7376 C.ar      1 ACP         0.5715
     32 HOG3       -6.6706    5.0035    2.3888 H         1 ACP         0.4226
     33 HOB2       -2.0999    5.1332   -2.4186 H         1 ACP         0.4482
     34 H3B1       -4.6067    6.9817   -0.0523 H         1 ACP         0.1012
     35 H3B2       -3.6960    6.7781    1.4416 H         1 ACP         0.1012
     36 H5'1       -1.7769    2.7851    2.1387 H         1 ACP         0.0481
     37 H5'2       -1.1653    2.0543    0.6320 H         1 ACP         0.0481
     38 H4'         0.0403    1.7078    3.4343 H         1 ACP         0.0904
     39 H3'         1.5906    1.4859    1.1353 H         1 ACP         0.0809
     40 HO3'        2.6839   -0.1150    2.2479 H         1 ACP         0.4528
     41 H2'        -0.0017    0.0018    0.0005 H         1 ACP         0.0594
     42 HO2'        2.0953   -0.9375    0.0709 H         1 ACP         0.4344
     43 H1'        -0.1998   -1.6319    2.6178 H         1 ACP         0.1127
     44 H8         -0.9745   -3.6312    1.2318 H         1 ACP         0.1050
     45 HN61       -5.2619   -3.7766   -0.9586 H         1 ACP         0.4211
     46 HN62       -6.4834   -2.5990   -1.3590 H         1 ACP         0.4211
     47 H2         -4.8317    1.4071    0.1930 H         1 ACP         0.0375
@<TRIPOS>BOND
     1    1    2 2
     2    1    3 1
     3    1    4 1
     4    1    8 1
     5    4   32 1
     6    5    6 2
     7    5    7 1
     8    5    8 1
     9    5   12 1
    10    7   33 1
    11    8   34 1
    12    8   35 1
    13    9   10 2
    14    9   11 1
    15    9   12 1
    16    9   13 1
    17   13   14 1
    18   14   15 1
    19   14   36 1
    20   14   37 1
    21   15   16 1
    22   15   17 1
    23   15   38 1
    24   16   21 1
    25   17   18 1
    26   17   19 1
    27   17   39 1
    28   18   40 1
    29   19   20 1
    30   19   21 1
    31   19   41 1
    32   20   42 1
    33   21   22 1
    34   21   43 1
    35   22   23 ar
    36   22   31 ar
    37   23   24 ar
    38   23   44 1
    39   24   25 ar
    40   25   26 ar
    41   25   31 ar
    42   26   27 1
    43   26   28 ar
    44   27   45 1
    45   27   46 1
    46   28   29 ar
    47   29   30 ar
    48   29   47 1
    49   30   31 ar
@<TRIPOS>SUBSTRUCTURE
     1 ACP         1 GROUP 0 A     ****
@<TRIPOS>MOLECULE
[[[5-(6-aminopurin-9-yl)-3,4-dihydroxy-tetrahydrofuran-2-yl]methoxy-oxido-phosphoryl]oxy-hydroxy-phosphoryl]methyl-hydroxy-phosphinate
   47    49     1     0     0
SMALL
USER_CHARGES

@<TRIPOS>ATOM
      1 PG         -4.0820    7.6986    3.2992 P.3       1 ACP         1.3516
      2 O1G        -5.1766    7.9710    4.3047 O.co2     1 ACP        -0.8379
      3 O2G        -4.3717    7.1562    1.9188 O.co2     1 ACP        -0.8379
      4 O3G        -3.1218    9.0110    3.1747 O.3       1 ACP        -0.7980
      5 PB         -1.3828    5.9471    3.2783 P.3       1 ACP         1.7688
      6 O1B        -0.5334    5.0296    4.1058 O.2       1 ACP        -0.9167
      7 O2B        -0.6415    7.2941    2.7806 O.3       1 ACP        -0.8201
      8 C3B        -2.8700    6.5557    4.1015 C.3       1 ACP        -0.6097
      9 PA         -2.9650    4.0420    1.6588 P.3       1 ACP         1.5979
     10 O1A        -3.0500    3.8015    0.1672 O.co2     1 ACP        -0.8617
     11 O2A        -4.2197    4.2123    2.4872 O.co2     1 ACP        -0.8617
     12 O3A        -1.9798    5.3173    1.9171 O.3       1 ACP        -0.8283
     13 O5'        -2.0402    2.8619    2.3131 O.3       1 ACP        -0.5783
     14 C5'        -0.8811    2.4285    1.6206 C.3       1 ACP         0.1980
     15 C4'        -0.1994    1.3333    2.4288 C.3       1 ACP         0.0815
     16 O4'        -1.1285    0.2356    2.5840 O.3       1 ACP        -0.4127
     17 C3'         1.0324    0.7610    1.7344 C.3       1 ACP         0.0890
     18 O3'         1.9175    0.2377    2.7247 O.3       1 ACP        -0.6221
     19 C2'         0.4468   -0.3802    0.9263 C.3       1 ACP         0.1067
     20 O2'         1.3993   -1.3703    0.5961 O.3       1 ACP        -0.6053
     21 C1'        -0.6159   -0.9100    1.8769 C.3       1 ACP         0.4223
     22 N9         -1.7127   -1.6108    1.2130 N.pl3     1 ACP        -0.6834
     23 C8         -1.7712   -2.9546    0.9544 C.ar      1 ACP         0.5614
     24 N7         -2.8883   -3.2948    0.3462 N.2       1 ACP        -0.5751
     25 C5         -3.5834   -2.1202    0.2043 C.ar      1 ACP        -0.2117
     26 C6         -4.8225   -1.8251   -0.3554 C.ar      1 ACP         0.7177
     27 N6         -5.6154   -2.8395   -0.9189 N.pl3     1 ACP        -0.9401
     28 N1         -5.2589   -0.5425   -0.3507 N.ar      1 ACP        -0.8008
     29 C2         -4.4510    0.3913    0.2069 C.ar      1 ACP         0.6565
     30 N3         -3.2368    0.2296    0.7767 N.ar      1 ACP        -0.7061
     31 C4         -2.8684   -1.0596    0.7376 C.ar      1 ACP         0.5715
     32 HOG3       -3.5229    9.8584    2.8861 H         1 ACP         0.4226
     33 HOB2        0.1579    7.2161    2.2175 H         1 ACP         0.4482
     34 H3B1       -2.5571    7.0491    5.0286 H         1 ACP         0.1012
     35 H3B2       -3.4576    5.6772    4.3889 H         1 ACP         0.1012
     36 H5'1       -1.1770    2.0503    0.6369 H         1 ACP         0.0481
     37 H5'2       -0.2082    3.2815    1.4877 H         1 ACP         0.0481
     38 H4'         0.0403    1.7078    3.4343 H         1 ACP         0.0904
     39 H3'         1.5906    1.4859    1.1353 H         1 ACP         0.0809
     40 HO3'        2.6839   -0.1150    2.2479 H         1 ACP         0.4528
     41 H2'        -0.0017    0.0018    0.0005 H         1 ACP         0.0594
     42 HO2'        2.0953   -0.9375    0.0709 H         1 ACP         0.4344
     43 H1'        -0.1998   -1.6319    2.6178 H         1 ACP         0.1127
     44 H8         -0.9745   -3.6312    1.2318 H         1 ACP         0.1050
     45 HN61       -5.2619   -3.7766   -0.9586 H         1 ACP         0.4211
     46 HN62       -6.4834   -2.5990   -1.3590 H         1 ACP         0.4211
     47 H2         -4.8317    1.4071    0.1930 H         1 ACP         0.0375
@<TRIPOS>BOND
     1    1    2 2
     2    1    3 1
     3    1    4 1
     4    1    8 1
     5    4   32 1
     6    5    6 2
     7    5    7 1
     8    5    8 1
     9    5   12 1
    10    7   33 1
    11    8   34 1
    12    8   35 1
    13    9   10 2
    14    9   11 1
    15    9   12 1
    16    9   13 1
    17   13   14 1
    18   14   15 1
    19   14   36 1
    20   14   37 1
    21   15   16 1
    22   15   17 1
    23   15   38 1
    24   16   21 1
    25   17   18 1
    26   17   19 1
    27   17   39 1
    28   18   40 1
    29   19   20 1
    30   19   21 1
    31   19   41 1
    32   20   42 1
    33   21   22 1
    34   21   43 1
    35   22   23 ar
    36   22   31 ar
    37   23   24 ar
    38   23   44 1
    39   24   25 ar
    40   25   26 ar
    41   25   31 ar
    42   26   27 1
    43   26   28 ar
    44   27   45 1
    45   27   46 1
    46   28   29 ar
    47   29   30 ar
    48   29   47 1
    49   30   31 ar
@<TRIPOS>SUBSTRUCTURE
     1 ACP         1 GROUP 0 A     ****
@<TRIPOS>MOLECULE
[[[5-(6-aminopurin-9-yl)-3,4-dihydroxy-tetrahydrofuran-2-yl]methoxy-oxido-phosphoryl]oxy-hydroxy-phosphoryl]methyl-hydroxy-phosphinate
   47    49     1     0     0
SMALL
USER_CHARGES

@<TRIPOS>ATOM
      1 PG         -0.1797    7.0883   -0.5084 P.3       1 ACP         1.3516
      2 O1G         0.8369    7.4600   -1.5628 O.co2     1 ACP        -0.8379
      3 O2G         0.1763    6.2433    0.6929 O.co2     1 ACP        -0.8379
      4 O3G        -0.9621    8.4309   -0.0131 O.3       1 ACP        -0.7980
      5 PB         -3.0515    5.6370   -0.5141 P.3       1 ACP         1.7688
      6 O1B        -4.0791    4.9988   -1.4000 O.2       1 ACP        -0.9167
      7 O2B        -3.5775    6.9140    0.3251 O.3       1 ACP        -0.8201
      8 C3B        -1.5898    6.2601   -1.3713 C.3       1 ACP        -0.6097
      9 PA         -3.0801    3.8628    1.8538 P.3       1 ACP         1.5979
     10 O1A        -3.9502    2.7657    1.2800 O.co2     1 ACP        -0.8617
     11 O2A        -3.6415    4.8527    2.8511 O.co2     1 ACP        -0.8617
     12 O3A        -2.4039    4.6816    0.6145 O.3       1 ACP        -0.8283
     13 O5'        -1.7337    3.1724    2.4753 O.3       1 ACP        -0.5783
     14 C5'        -0.8811    2.4285    1.6206 C.3       1 ACP         0.1980
     15 C4'        -0.1994    1.3333    2.4288 C.3       1 ACP         0.0815
     16 O4'        -1.1285    0.2356    2.5840 O.3       1 ACP        -0.4127
     17 C3'         1.0324    0.7610    1.7344 C.3       1 ACP         0.0890
     18 O3'         1.9175    0.2377    2.7247 O.3       1 ACP        -0.6221
     19 C2'         0.4468   -0.3802    0.9263 C.3       1 ACP         0.1067
     20 O2'         1.3993   -1.3703    0.5961 O.3       1 ACP        -0.6053
     21 C1'        -0.6159   -0.9100    1.8769 C.3       1 ACP         0.4223
     22 N9         -1.7127   -1.6108    1.2130 N.pl3     1 ACP        -0.6834
     23 C8         -2.8641   -1.0399    0.7392 C.ar      1 ACP         0.5614
     24 N7         -3.6659   -1.9257    0.1858 N.2       1 ACP        -0.5751
     25 C5         -3.0053   -3.1223    0.3069 C.ar      1 ACP        -0.2117
     26 C6         -3.3321   -4.4178   -0.0813 C.ar      1 ACP         0.7177
     27 N6         -4.5476   -4.6866   -0.7335 N.pl3     1 ACP        -0.9401
     28 N1         -2.4608   -5.4225    0.1773 N.ar      1 ACP        -0.8008
     29 C2         -1.3053   -5.1020    0.8081 C.ar      1 ACP         0.6565
     30 N3         -0.8788   -3.8921    1.2315 N.ar      1 ACP        -0.7061
     31 C4         -1.7870   -2.9477    0.9438 C.ar      1 ACP         0.5715
     32 HOG3       -0.4380    9.1567    0.3879 H         1 ACP         0.4226
     33 HOB2       -4.3222    6.7962    0.9525 H         1 ACP         0.4482
     34 H3B1       -1.9307    6.9646   -2.1383 H         1 ACP         0.1012
     35 H3B2       -1.1402    5.4095   -1.8948 H         1 ACP         0.1012
     36 H5'1       -1.4802    1.9928    0.8147 H         1 ACP         0.0481
     37 H5'2       -0.1369    3.1042    1.1873 H         1 ACP         0.0481
     38 H4'         0.0403    1.7078    3.4343 H         1 ACP         0.0904
     39 H3'         1.5906    1.4859    1.1353 H         1 ACP         0.0809
     40 HO3'        2.6839   -0.1150    2.2479 H         1 ACP         0.4528
     41 H2'        -0.0017    0.0018    0.0005 H         1 ACP         0.0594
     42 HO2'        2.0953   -0.9375    0.0709 H         1 ACP         0.4344
     43 H1'        -0.1998   -1.6319    2.6178 H         1 ACP         0.1127
     44 H8         -3.0609    0.0200    0.8250 H         1 ACP         0.1050
     45 HN61       -5.2046   -3.9433   -0.8775 H         1 ACP         0.4211
     46 HN62       -4.7849   -5.6332   -0.9625 H         1 ACP         0.4211
     47 H2         -0.6318   -5.9307    0.9993 H         1 ACP         0.0375
@<TRIPOS>BOND
     1    1    2 2
     2    1    3 1
     3    1    4 1
     4    1    8 1
     5    4   32 1
     6    5    6 2
     7    5    7 1
     8    5    8 1
     9    5   12 1
    10    7   33 1
    11    8   34 1
    12    8   35 1
    13    9   10 2
    14    9   11 1
    15    9   12 1
    16    9   13 1
    17   13   14 1
    18   14   15 1
    19   14   36 1
    20   14   37 1
    21   15   16 1
    22   15   17 1
    23   15   38 1
    24   16   21 1
    25   17   18 1
    26   17   19 1
    27   17   39 1
    28   18   40 1
    29   19   20 1
    30   19   21 1
    31   19   41 1
    32   20   42 1
    33   21   22 1
    34   21   43 1
    35   22   23 ar
    36   22   31 ar
    37   23   24 ar
    38   23   44 1
    39   24   25 ar
    40   25   26 ar
    41   25   31 ar
    42   26   27 1
    43   26   28 ar
    44   27   45 1
    45   27   46 1
    46   28   29 ar
    47   29   30 ar
    48   29   47 1
    49   30   31 ar
@<TRIPOS>SUBSTRUCTURE
     1 ACP         1 GROUP 0 A     ****
@<TRIPOS>MOLECULE
[[[5-(6-aminopurin-9-yl)-3,4-dihydroxy-tetrahydrofuran-2-yl]methoxy-oxido-phosphoryl]oxy-hydroxy-phosphoryl]methyl-hydroxy-phosphinate
   47    49     1     0     0
SMALL
USER_CHARGES

@<TRIPOS>ATOM
      1 PG         -4.0225    7.7437    2.4326 P.3       1 ACP         1.3516
      2 O1G        -5.3973    7.9845    3.0114 O.co2     1 ACP        -0.8379
      3 O2G        -3.8136    7.3382    0.9918 O.co2     1 ACP        -0.8379
      4 O3G        -3.0572    9.0106    2.7838 O.3       1 ACP        -0.7980
      5 PB         -1.5227    5.8633    3.1872 P.3       1 ACP         1.7688
      6 O1B        -1.0383    4.8351    4.1651 O.2       1 ACP        -0.9167
      7 O2B        -0.6293    7.2081    3.1176 O.3       1 ACP        -0.8201
      8 C3B        -3.1940    6.4746    3.4919 C.3       1 ACP        -0.6097
      9 PA         -0.4663    4.8326    0.6227 P.3       1 ACP         1.5979
     10 O1A         0.6760    5.8249    0.6052 O.co2     1 ACP        -0.8617
     11 O2A        -1.1288    4.3936   -0.6650 O.co2     1 ACP        -0.8617
     12 O3A        -1.6097    5.3851    1.6478 O.3       1 ACP        -0.8283
     13 O5'         0.0181    3.5132    1.4596 O.3       1 ACP        -0.5783
     14 C5'        -0.8811    2.4285    1.6206 C.3       1 ACP         0.1980
     15 C4'        -0.1994    1.3333    2.4288 C.3       1 ACP         0.0815
     16 O4'        -1.1285    0.2356    2.5840 O.3       1 ACP        -0.4127
     17 C3'         1.0324    0.7610    1.7344 C.3       1 ACP         0.0890
     18 O3'         1.9175    0.2377    2.7247 O.3       1 ACP        -0.6221
     19 C2'         0.4468   -0.3802    0.9263 C.3       1 ACP         0.1067
     20 O2'         1.3993   -1.3703    0.5961 O.3       1 ACP        -0.6053
     21 C1'        -0.6159   -0.9100    1.8769 C.3       1 ACP         0.4223
     22 N9         -1.7127   -1.6108    1.2130 N.pl3     1 ACP        -0.6834
     23 C8         -1.7712   -2.9546    0.9544 C.ar      1 ACP         0.5614
     24 N7         -2.8883   -3.2948    0.3462 N.2       1 ACP        -0.5751
     25 C5         -3.5834   -2.1202    0.2043 C.ar      1 ACP        -0.2117
     26 C6         -4.8225   -1.8251   -0.3554 C.ar      1 ACP         0.7177
     27 N6         -5.6154   -2.8395   -0.9189 N.pl3     1 ACP        -0.9401
     28 N1         -5.2589   -0.5425   -0.3507 N.ar      1 ACP        -0.8008
     29 C2         -4.4510    0.3913    0.2069 C.ar      1 ACP         0.6565
     30 N3         -3.2368    0.2296    0.7767 N.ar      1 ACP        -0.7061
     31 C4         -2.8684   -1.0596    0.7376 C.ar      1 ACP         0.5715
     32 HOG3       -3.3148    9.8993    2.4582 H         1 ACP         0.4226
     33 HOB2        0.3162    7.1377    2.8662 H         1 ACP         0.4482
     34 H3B1       -3.2213    6.8693    4.5138 H         1 ACP         0.1012
     35 H3B2       -3.8610    5.6062    3.4661 H         1 ACP         0.1012
     36 H5'1       -1.7769    2.7851    2.1387 H         1 ACP         0.0481
     37 H5'2       -1.1653    2.0543    0.6320 H         1 ACP         0.0481
     38 H4'         0.0403    1.7078    3.4343 H         1 ACP         0.0904
     39 H3'         1.5906    1.4859    1.1353 H         1 ACP         0.0809
     40 HO3'        2.6839   -0.1150    2.2479 H         1 ACP         0.4528
     41 H2'        -0.0017    0.0018    0.0005 H         1 ACP         0.0594
     42 HO2'        2.0953   -0.9375    0.0709 H         1 ACP         0.4344
     43 H1'        -0.1998   -1.6319    2.6178 H         1 ACP         0.1127
     44 H8         -0.9745   -3.6312    1.2318 H         1 ACP         0.1050
     45 HN61       -5.2619   -3.7766   -0.9586 H         1 ACP         0.4211
     46 HN62       -6.4834   -2.5990   -1.3590 H         1 ACP         0.4211
     47 H2         -4.8317    1.4071    0.1930 H         1 ACP         0.0375
@<TRIPOS>BOND
     1    1    2 2
     2    1    3 1
     3    1    4 1
     4    1    8 1
     5    4   32 1
     6    5    6 2
     7    5    7 1
     8    5    8 1
     9    5   12 1
    10    7   33 1
    11    8   34 1
    12    8   35 1
    13    9   10 2
    14    9   11 1
    15    9   12 1
    16    9   13 1
    17   13   14 1
    18   14   15 1
    19   14   36 1
    20   14   37 1
    21   15   16 1
    22   15   17 1
    23   15   38 1
    24   16   21 1
    25   17   18 1
    26   17   19 1
    27   17   39 1
    28   18   40 1
    29   19   20 1
    30   19   21 1
    31   19   41 1
    32   20   42 1
    33   21   22 1
    34   21   43 1
    35   22   23 ar
    36   22   31 ar
    37   23   24 ar
    38   23   44 1
    39   24   25 ar
    40   25   26 ar
    41   25   31 ar
    42   26   27 1
    43   26   28 ar
    44   27   45 1
    45   27   46 1
    46   28   29 ar
    47   29   30 ar
    48   29   47 1
    49   30   31 ar
@<TRIPOS>SUBSTRUCTURE
     1 ACP         1 GROUP 0 A     ****
@<TRIPOS>MOLECULE
[[[5-(6-aminopurin-9-yl)-3,4-dihydroxy-tetrahydrofuran-2-yl]methoxy-oxido-phosphoryl]oxy-hydroxy-phosphoryl]methyl-hydroxy-phosphinate
   47    49     1     0     0
SMALL
USER_CHARGES

@<TRIPOS>ATOM
      1 PG         -3.3523    4.1512    5.3177 P.3       1 ACP         1.3516
      2 O1G        -4.4109    4.1308    4.2397 O.co2     1 ACP        -0.8379
      3 O2G        -3.6889    3.9895    6.7820 O.co2     1 ACP        -0.8379
      4 O3G        -2.1544    3.1181    4.9203 O.3       1 ACP        -0.7980
      5 PB         -1.9507    6.4369    3.5386 P.3       1 ACP         1.7688
      6 O1B        -1.1905    7.7271    3.6129 O.2       1 ACP        -0.9167
      7 O2B        -3.3514    6.5194    2.7367 O.3       1 ACP        -0.8201
      8 C3B        -2.4123    5.7331    5.1359 C.3       1 ACP        -0.6097
      9 PA         -0.5788    5.0303    1.3262 P.3       1 ACP         1.5979
     10 O1A         0.5862    5.9826    1.1662 O.co2     1 ACP        -0.8617
     11 O2A        -1.7218    5.0335    0.3346 O.co2     1 ACP        -0.8617
     12 O3A        -1.1812    5.2058    2.8328 O.3       1 ACP        -0.8283
     13 O5'         0.0181    3.5132    1.4596 O.3       1 ACP        -0.5783
     14 C5'        -0.8811    2.4285    1.6206 C.3       1 ACP         0.1980
     15 C4'        -0.1994    1.3333    2.4288 C.3       1 ACP         0.0815
     16 O4'        -1.1285    0.2356    2.5840 O.3       1 ACP        -0.4127
     17 C3'         1.0324    0.7610    1.7344 C.3       1 ACP         0.0890
     18 O3'         1.9175    0.2377    2.7247 O.3       1 ACP        -0.6221
     19 C2'         0.4468   -0.3802    0.9263 C.3       1 ACP         0.1067
     20 O2'         1.3993   -1.3703    0.5961 O.3       1 ACP        -0.6053
     21 C1'        -0.6159   -0.9100    1.8769 C.3       1 ACP         0.4223
     22 N9         -1.7127   -1.6108    1.2130 N.pl3     1 ACP        -0.6834
     23 C8         -1.7712   -2.9546    0.9544 C.ar      1 ACP         0.5614
     24 N7         -2.8883   -3.2948    0.3462 N.2       1 ACP        -0.5751
     25 C5         -3.5834   -2.1202    0.2043 C.ar      1 ACP        -0.2117
     26 C6         -4.8225   -1.8251   -0.3554 C.ar      1 ACP         0.7177
     27 N6         -5.6154   -2.8395   -0.9189 N.pl3     1 ACP        -0.9401
     28 N1         -5.2589   -0.5425   -0.3507 N.ar      1 ACP        -0.8008
     29 C2         -4.4510    0.3913    0.2069 C.ar      1 ACP         0.6565
     30 N3         -3.2368    0.2296    0.7767 N.ar      1 ACP        -0.7061
     31 C4         -2.8684   -1.0596    0.7376 C.ar      1 ACP         0.5715
     32 HOG3       -2.3747    2.1695    4.8024 H         1 ACP         0.4226
     33 HOB2       -3.3438    6.7898    1.7939 H         1 ACP         0.4482
     34 H3B1       -2.9887    6.4914    5.6779 H         1 ACP         0.1012
     35 H3B2       -1.4840    5.5760    5.6955 H         1 ACP         0.1012
     36 H5'1       -1.7769    2.7851    2.1387 H         1 ACP         0.0481
     37 H5'2       -1.1653    2.0543    0.6320 H         1 ACP         0.0481
     38 H4'         0.0403    1.7078    3.4343 H         1 ACP         0.0904
     39 H3'         1.5906    1.4859    1.1353 H         1 ACP         0.0809
     40 HO3'        2.6839   -0.1150    2.2479 H         1 ACP         0.4528
     41 H2'        -0.0017    0.0018    0.0005 H         1 ACP         0.0594
     42 HO2'        2.0953   -0.9375    0.0709 H         1 ACP         0.4344
     43 H1'        -0.1998   -1.6319    2.6178 H         1 ACP         0.1127
     44 H8         -0.9745   -3.6312    1.2318 H         1 ACP         0.1050
     45 HN61       -5.2619   -3.7766   -0.9586 H         1 ACP         0.4211
     46 HN62       -6.4834   -2.5990   -1.3590 H         1 ACP         0.4211
     47 H2         -4.8317    1.4071    0.1930 H         1 ACP         0.0375
@<TRIPOS>BOND
     1    1    2 2
     2    1    3 1
     3    1    4 1
     4    1    8 1
     5    4   32 1
     6    5    6 2
     7    5    7 1
     8    5    8 1
     9    5   12 1
    10    7   33 1
    11    8   34 1
    12    8   35 1
    13    9   10 2
    14    9   11 1
    15    9   12 1
    16    9   13 1
    17   13   14 1
    18   14   15 1
    19   14   36 1
    20   14   37 1
    21   15   16 1
    22   15   17 1
    23   15   38 1
    24   16   21 1
    25   17   18 1
    26   17   19 1
    27   17   39 1
    28   18   40 1
    29   19   20 1
    30   19   21 1
    31   19   41 1
    32   20   42 1
    33   21   22 1
    34   21   43 1
    35   22   23 ar
    36   22   31 ar
    37   23   24 ar
    38   23   44 1
    39   24   25 ar
    40   25   26 ar
    41   25   31 ar
    42   26   27 1
    43   26   28 ar
    44   27   45 1
    45   27   46 1
    46   28   29 ar
    47   29   30 ar
    48   29   47 1
    49   30   31 ar
@<TRIPOS>SUBSTRUCTURE
     1 ACP         1 GROUP 0 A     ****
@<TRIPOS>MOLECULE
[[[5-(6-aminopurin-9-yl)-3,4-dihydroxy-tetrahydrofuran-2-yl]methoxy-oxido-phosphoryl]oxy-hydroxy-phosphoryl]methyl-hydroxy-phosphinate
   47    49     1     0     0
SMALL
USER_CHARGES

@<TRIPOS>ATOM
      1 PG         -5.4353    3.4392   -1.4453 P.3       1 ACP         1.3516
      2 O1G        -5.0048    2.4246   -0.4116 O.co2     1 ACP        -0.8379
      3 O2G        -5.8476    3.0409   -2.8436 O.co2     1 ACP        -0.8379
      4 O3G        -6.5716    4.4175   -0.8038 O.3       1 ACP        -0.7980
      5 PB         -3.4912    5.6947   -0.2258 P.3       1 ACP         1.7688
      6 O1B        -4.5310    6.5865    0.3838 O.2       1 ACP        -0.9167
      7 O2B        -2.2077    6.4656   -0.8342 O.3       1 ACP        -0.8201
      8 C3B        -4.0720    4.6787   -1.6007 C.3       1 ACP        -0.6097
      9 PA         -2.0038    4.7531    2.1525 P.3       1 ACP         1.5979
     10 O1A        -2.9393    5.2969    3.2104 O.co2     1 ACP        -0.8617
     11 O2A        -0.6860    5.4370    1.8604 O.co2     1 ACP        -0.8617
     12 O3A        -2.8410    4.5946    0.7605 O.3       1 ACP        -0.8283
     13 O5'        -1.7337    3.1724    2.4753 O.3       1 ACP        -0.5783
     14 C5'        -0.8811    2.4285    1.6206 C.3       1 ACP         0.1980
     15 C4'        -0.1994    1.3333    2.4288 C.3       1 ACP         0.0815
     16 O4'        -1.1285    0.2356    2.5840 O.3       1 ACP        -0.4127
     17 C3'         1.0324    0.7610    1.7344 C.3       1 ACP         0.0890
     18 O3'         1.9175    0.2377    2.7247 O.3       1 ACP        -0.6221
     19 C2'         0.4468   -0.3802    0.9263 C.3       1 ACP         0.1067
     20 O2'         1.3993   -1.3703    0.5961 O.3       1 ACP        -0.6053
     21 C1'        -0.6159   -0.9100    1.8769 C.3       1 ACP         0.4223
     22 N9         -1.7127   -1.6108    1.2130 N.pl3     1 ACP        -0.6834
     23 C8         -2.8641   -1.0399    0.7392 C.ar      1 ACP         0.5614
     24 N7         -3.6659   -1.9257    0.1858 N.2       1 ACP        -0.5751
     25 C5         -3.0053   -3.1223    0.3069 C.ar      1 ACP        -0.2117
     26 C6         -3.3321   -4.4178   -0.0813 C.ar      1 ACP         0.7177
     27 N6         -4.5476   -4.6866   -0.7335 N.pl3     1 ACP        -0.9401
     28 N1         -2.4608   -5.4225    0.1773 N.ar      1 ACP        -0.8008
     29 C2         -1.3053   -5.1020    0.8081 C.ar      1 ACP         0.6565
     30 N3         -0.8788   -3.8921    1.2315 N.ar      1 ACP        -0.7061
     31 C4         -1.7870   -2.9477    0.9438 C.ar      1 ACP         0.5715
     32 HOG3       -7.4071    4.0162   -0.4825 H         1 ACP         0.4226
     33 HOB2       -1.6584    7.0175   -0.2377 H         1 ACP         0.4482
     34 H3B1       -3.2089    4.1310   -1.9957 H         1 ACP         0.1012
     35 H3B2       -4.4028    5.3654   -2.3872 H         1 ACP         0.1012
     36 H5'1       -1.4802    1.9928    0.8147 H         1 ACP         0.0481
     37 H5'2       -0.1369    3.1042    1.1873 H         1 ACP         0.0481
     38 H4'         0.0403    1.7078    3.4343 H         1 ACP         0.0904
     39 H3'         1.5906    1.4859    1.1353 H         1 ACP         0.0809
     40 HO3'        2.6839   -0.1150    2.2479 H         1 ACP         0.4528
     41 H2'        -0.0017    0.0018    0.0005 H         1 ACP         0.0594
     42 HO2'        0.9369   -2.0558    0.0825 H         1 ACP         0.4344
     43 H1'        -0.1998   -1.6319    2.6178 H         1 ACP         0.1127
     44 H8         -3.0609    0.0200    0.8250 H         1 ACP         0.1050
     45 HN61       -5.2046   -3.9433   -0.8775 H         1 ACP         0.4211
     46 HN62       -4.7849   -5.6332   -0.9625 H         1 ACP         0.4211
     47 H2         -0.6318   -5.9307    0.9993 H         1 ACP         0.0375
@<TRIPOS>BOND
     1    1    2 2
     2    1    3 1
     3    1    4 1
     4    1    8 1
     5    4   32 1
     6    5    6 2
     7    5    7 1
     8    5    8 1
     9    5   12 1
    10    7   33 1
    11    8   34 1
    12    8   35 1
    13    9   10 2
    14    9   11 1
    15    9   12 1
    16    9   13 1
    17   13   14 1
    18   14   15 1
    19   14   36 1
    20   14   37 1
    21   15   16 1
    22   15   17 1
    23   15   38 1
    24   16   21 1
    25   17   18 1
    26   17   19 1
    27   17   39 1
    28   18   40 1
    29   19   20 1
    30   19   21 1
    31   19   41 1
    32   20   42 1
    33   21   22 1
    34   21   43 1
    35   22   23 ar
    36   22   31 ar
    37   23   24 ar
    38   23   44 1
    39   24   25 ar
    40   25   26 ar
    41   25   31 ar
    42   26   27 1
    43   26   28 ar
    44   27   45 1
    45   27   46 1
    46   28   29 ar
    47   29   30 ar
    48   29   47 1
    49   30   31 ar
@<TRIPOS>SUBSTRUCTURE
     1 ACP         1 GROUP 0 A     ****
@<TRIPOS>MOLECULE
[[[5-(6-aminopurin-9-yl)-3,4-dihydroxy-tetrahydrofuran-2-yl]methoxy-oxido-phosphoryl]oxy-hydroxy-phosphoryl]methyl-hydroxy-phosphinate
   47    49     1     0     0
SMALL
USER_CHARGES

@<TRIPOS>ATOM
      1 PG         -3.3685    3.4480   -2.4302 P.3       1 ACP         1.3516
      2 O1G        -4.3286    3.6665   -3.5764 O.co2     1 ACP        -0.8379
      3 O2G        -3.7835    3.6167   -0.9870 O.co2     1 ACP        -0.8379
      4 O3G        -2.6234    2.0089   -2.6146 O.3       1 ACP        -0.7980
      5 PB         -0.4906    4.6265   -1.6037 P.3       1 ACP         1.7688
      6 O1B         0.5881    5.5802   -2.0222 O.2       1 ACP        -0.9167
      7 O2B        -0.0200    3.0865   -1.4673 O.3       1 ACP        -0.8201
      8 C3B        -1.9078    4.5442   -2.7194 C.3       1 ACP        -0.6097
      9 PA         -0.5788    5.0303    1.3262 P.3       1 ACP         1.5979
     10 O1A        -1.7294    5.1711    2.2989 O.co2     1 ACP        -0.8617
     11 O2A         0.5650    6.0209    1.3331 O.co2     1 ACP        -0.8617
     12 O3A        -1.1922    4.9364   -0.1832 O.3       1 ACP        -0.8283
     13 O5'         0.0181    3.5132    1.4596 O.3       1 ACP        -0.5783
     14 C5'        -0.8811    2.4285    1.6206 C.3       1 ACP         0.1980
     15 C4'        -0.1994    1.3333    2.4288 C.3       1 ACP         0.0815
     16 O4'        -1.1285    0.2356    2.5840 O.3       1 ACP        -0.4127
     17 C3'         1.0324    0.7610    1.7344 C.3       1 ACP         0.0890
     18 O3'         1.9175    0.2377    2.7247 O.3       1 ACP        -0.6221
     19 C2'         0.4468   -0.3802    0.9263 C.3       1 ACP         0.1067
     20 O2'         1.3993   -1.3703    0.5961 O.3       1 ACP        -0.6053
     21 C1'        -0.6159   -0.9100    1.8769 C.3       1 ACP         0.4223
     22 N9         -1.7127   -1.6108    1.2130 N.pl3     1 ACP        -0.6834
     23 C8         -1.7712   -2.9546    0.9544 C.ar      1 ACP         0.5614
     24 N7         -2.8883   -3.2948    0.3462 N.2       1 ACP        -0.5751
     25 C5         -3.5834   -2.1202    0.2043 C.ar      1 ACP        -0.2117
     26 C6         -4.8225   -1.8251   -0.3554 C.ar      1 ACP         0.7177
     27 N6         -5.6154   -2.8395   -0.9189 N.pl3     1 ACP        -0.9401
     28 N1         -5.2589   -0.5425   -0.3507 N.ar      1 ACP        -0.8008
     29 C2         -4.4510    0.3913    0.2069 C.ar      1 ACP         0.6565
     30 N3         -3.2368    0.2296    0.7767 N.ar      1 ACP        -0.7061
     31 C4         -2.8684   -1.0596    0.7376 C.ar      1 ACP         0.5715
     32 HOG3       -3.1736    1.1971   -2.6398 H         1 ACP         0.4226
     33 HOB2        0.6902    2.8616   -0.8293 H         1 ACP         0.4482
     34 H3B1       -1.5305    4.2886   -3.7160 H         1 ACP         0.1012
     35 H3B2       -2.3223    5.5560   -2.7837 H         1 ACP         0.1012
     36 H5'1       -1.7769    2.7851    2.1387 H         1 ACP         0.0481
     37 H5'2       -1.1653    2.0543    0.6320 H         1 ACP         0.0481
     38 H4'         0.0403    1.7078    3.4343 H         1 ACP         0.0904
     39 H3'         1.5906    1.4859    1.1353 H         1 ACP         0.0809
     40 HO3'        2.6839   -0.1150    2.2479 H         1 ACP         0.4528
     41 H2'        -0.0017    0.0018    0.0005 H         1 ACP         0.0594
     42 HO2'        2.0953   -0.9375    0.0709 H         1 ACP         0.4344
     43 H1'        -0.1998   -1.6319    2.6178 H         1 ACP         0.1127
     44 H8         -0.9745   -3.6312    1.2318 H         1 ACP         0.1050
     45 HN61       -5.2619   -3.7766   -0.9586 H         1 ACP         0.4211
     46 HN62       -6.4834   -2.5990   -1.3590 H         1 ACP         0.4211
     47 H2         -4.8317    1.4071    0.1930 H         1 ACP         0.0375
@<TRIPOS>BOND
     1    1    2 2
     2    1    3 1
     3    1    4 1
     4    1    8 1
     5    4   32 1
     6    5    6 2
     7    5    7 1
     8    5    8 1
     9    5   12 1
    10    7   33 1
    11    8   34 1
    12    8   35 1
    13    9   10 2
    14    9   11 1
    15    9   12 1
    16    9   13 1
    17   13   14 1
    18   14   15 1
    19   14   36 1
    20   14   37 1
    21   15   16 1
    22   15   17 1
    23   15   38 1
    24   16   21 1
    25   17   18 1
    26   17   19 1
    27   17   39 1
    28   18   40 1
    29   19   20 1
    30   19   21 1
    31   19   41 1
    32   20   42 1
    33   21   22 1
    34   21   43 1
    35   22   23 ar
    36   22   31 ar
    37   23   24 ar
    38   23   44 1
    39   24   25 ar
    40   25   26 ar
    41   25   31 ar
    42   26   27 1
    43   26   28 ar
    44   27   45 1
    45   27   46 1
    46   28   29 ar
    47   29   30 ar
    48   29   47 1
    49   30   31 ar
@<TRIPOS>SUBSTRUCTURE
     1 ACP         1 GROUP 0 A     ****
@<TRIPOS>MOLECULE
[[[5-(6-aminopurin-9-yl)-3,4-dihydroxy-tetrahydrofuran-2-yl]methoxy-oxido-phosphoryl]oxy-hydroxy-phosphoryl]methyl-hydroxy-phosphinate
   47    49     1     0     0
SMALL
USER_CHARGES

@<TRIPOS>ATOM
      1 PG         -4.5919   -1.9714   -3.5300 P.3       1 ACP         1.3516
      2 O1G        -4.6377   -3.3090   -2.8286 O.co2     1 ACP        -0.8379
      3 O2G        -5.7335   -1.4684   -4.3831 O.co2     1 ACP        -0.8379
      4 O3G        -4.1628   -0.8147   -2.4633 O.3       1 ACP        -0.7980
      5 PB         -2.5868   -0.5465   -5.6045 P.3       1 ACP         1.7688
      6 O1B        -3.5822   -0.1675   -6.6598 O.2       1 ACP        -0.9167
      7 O2B        -1.1289   -0.9622   -6.1642 O.3       1 ACP        -0.8201
      8 C3B        -3.0669   -1.9501   -4.5754 C.3       1 ACP        -0.6097
      9 PA         -1.6496    2.0939   -4.6531 P.3       1 ACP         1.5979
     10 O1A        -2.6633    2.9486   -5.3823 O.co2     1 ACP        -0.8617
     11 O2A        -0.2216    1.9994   -5.1446 O.co2     1 ACP        -0.8617
     12 O3A        -2.2614    0.5883   -4.5035 O.3       1 ACP        -0.8283
     13 O5'        -1.6519    2.5337   -3.0776 O.3       1 ACP        -0.5783
     14 C5'        -0.7794    1.8744   -2.1748 C.3       1 ACP         0.1980
     15 C4'        -0.9699    2.4597   -0.7819 C.3       1 ACP         0.0815
     16 O4'        -2.1475    1.8640   -0.2014 O.3       1 ACP        -0.4127
     17 C3'         0.1697    2.1347    0.1695 C.3       1 ACP         0.0890
     18 O3'         0.1809    3.0982    1.2223 O.3       1 ACP        -0.6221
     19 C2'        -0.2543    0.7880    0.7187 C.3       1 ACP         0.1067
     20 O2'         0.3606    0.4944    1.9582 O.3       1 ACP        -0.6053
     21 C1'        -1.7682    0.9516    0.8548 C.3       1 ACP         0.4223
     22 N9         -2.5926   -0.2553    0.7436 N.pl3     1 ACP        -0.6834
     23 C8         -2.2879   -1.3752    0.0161 C.ar      1 ACP         0.5614
     24 N7         -3.2214   -2.2987    0.1123 N.2       1 ACP        -0.5751
     25 C5         -4.1722   -1.7531    0.9377 C.ar      1 ACP        -0.2117
     26 C6         -5.3870   -2.2342    1.4159 C.ar      1 ACP         0.7177
     27 N6         -5.8433   -3.5142    1.0574 N.pl3     1 ACP        -0.9401
     28 N1         -6.1289   -1.4512    2.2356 N.ar      1 ACP        -0.8008
     29 C2         -5.6370   -0.2275    2.5461 C.ar      1 ACP         0.6565
     30 N3         -4.4810    0.3469    2.1476 N.ar      1 ACP        -0.7061
     31 C4         -3.7996   -0.4810    1.3417 C.ar      1 ACP         0.5715
     32 HOG3       -4.7326   -0.6675   -1.6785 H         1 ACP         0.4226
     33 HOB2       -0.6151   -0.3076   -6.6835 H         1 ACP         0.4482
     34 H3B1       -2.2328   -2.1647   -3.8977 H         1 ACP         0.1012
     35 H3B2       -3.1687   -2.8138   -5.2412 H         1 ACP         0.1012
     36 H5'1       -1.0116    0.8047   -2.1754 H         1 ACP         0.0481
     37 H5'2        0.2522    2.0163   -2.5120 H         1 ACP         0.0481
     38 H4'        -1.1469    3.5409   -0.8522 H         1 ACP         0.0904
     39 H3'         1.1601    2.1310   -0.2934 H         1 ACP         0.0809
     40 HO3'        0.3098    3.9616    0.8017 H         1 ACP         0.4528
     41 H2'        -0.0024   -0.0091    0.0062 H         1 ACP         0.0594
     42 HO2'        0.0384   -0.3797    2.2403 H         1 ACP         0.4344
     43 H1'        -2.0584    1.4255    1.8301 H         1 ACP         0.1127
     44 H8         -1.3765   -1.4593   -0.5599 H         1 ACP         0.1050
     45 HN61       -5.3086   -4.0656    0.4134 H         1 ACP         0.4211
     46 HN62       -6.7426   -3.8233    1.3745 H         1 ACP         0.4211
     47 H2         -6.2570    0.3723    3.2040 H         1 ACP         0.0375
@<TRIPOS>BOND
     1    1    2 2
     2    1    3 1
     3    1    4 1
     4    1    8 1
     5    4   32 1
     6    5    6 2
     7    5    7 1
     8    5    8 1
     9    5   12 1
    10    7   33 1
    11    8   34 1
    12    8   35 1
    13    9   10 2
    14    9   11 1
    15    9   12 1
    16    9   13 1
    17   13   14 1
    18   14   15 1
    19   14   36 1
    20   14   37 1
    21   15   16 1
    22   15   17 1
    23   15   38 1
    24   16   21 1
    25   17   18 1
    26   17   19 1
    27   17   39 1
    28   18   40 1
    29   19   20 1
    30   19   21 1
    31   19   41 1
    32   20   42 1
    33   21   22 1
    34   21   43 1
    35   22   23 ar
    36   22   31 ar
    37   23   24 ar
    38   23   44 1
    39   24   25 ar
    40   25   26 ar
    41   25   31 ar
    42   26   27 1
    43   26   28 ar
    44   27   45 1
    45   27   46 1
    46   28   29 ar
    47   29   30 ar
    48   29   47 1
    49   30   31 ar
@<TRIPOS>SUBSTRUCTURE
     1 ACP         1 GROUP 0 A     ****
@<TRIPOS>MOLECULE
[[[5-(6-aminopurin-9-yl)-3,4-dihydroxy-tetrahydrofuran-2-yl]methoxy-oxido-phosphoryl]oxy-hydroxy-phosphoryl]methyl-hydroxy-phosphinate
   47    49     1     0     0
SMALL
USER_CHARGES

@<TRIPOS>ATOM
      1 PG         -0.1110    5.8788   -1.7269 P.3       1 ACP         1.3516
      2 O1G         0.8781    7.0142   -1.8531 O.co2     1 ACP        -0.8379
      3 O2G        -0.5526    5.0577   -2.9163 O.co2     1 ACP        -0.8379
      4 O3G         0.3596    4.8814   -0.5253 O.3       1 ACP        -0.7980
      5 PB         -3.0972    5.5678   -0.5693 P.3       1 ACP         1.7688
      6 O1B        -3.7416    4.9376   -1.7676 O.2       1 ACP        -0.9167
      7 O2B        -4.0489    6.5745    0.2627 O.3       1 ACP        -0.8201
      8 C3B        -1.6325    6.5608   -0.9277 C.3       1 ACP        -0.6097
      9 PA         -3.3165    3.4234    1.4577 P.3       1 ACP         1.5979
     10 O1A        -3.7911    2.3182    0.5394 O.co2     1 ACP        -0.8617
     11 O2A        -4.2808    4.1177    2.3945 O.co2     1 ACP        -0.8617
     12 O3A        -2.5502    4.5464    0.5547 O.3       1 ACP        -0.8283
     13 O5'        -2.0402    2.8619    2.3131 O.3       1 ACP        -0.5783
     14 C5'        -0.8811    2.4285    1.6206 C.3       1 ACP         0.1980
     15 C4'        -0.1994    1.3333    2.4288 C.3       1 ACP         0.0815
     16 O4'        -1.1285    0.2356    2.5840 O.3       1 ACP        -0.4127
     17 C3'         1.0324    0.7610    1.7344 C.3       1 ACP         0.0890
     18 O3'         1.9175    0.2377    2.7247 O.3       1 ACP        -0.6221
     19 C2'         0.4468   -0.3802    0.9263 C.3       1 ACP         0.1067
     20 O2'         1.3993   -1.3703    0.5961 O.3       1 ACP        -0.6053
     21 C1'        -0.6159   -0.9100    1.8769 C.3       1 ACP         0.4223
     22 N9         -1.7127   -1.6108    1.2130 N.pl3     1 ACP        -0.6834
     23 C8         -2.5476   -1.0844    0.2632 C.ar      1 ACP         0.5614
     24 N7         -3.4391   -1.9591   -0.1536 N.2       1 ACP        -0.5751
     25 C5         -3.1701   -3.1016    0.5574 C.ar      1 ACP        -0.2117
     26 C6         -3.7593   -4.3620    0.5656 C.ar      1 ACP         0.7177
     27 N6         -4.8512   -4.6493   -0.2712 N.pl3     1 ACP        -0.9401
     28 N1         -3.2659   -5.3144    1.3932 N.ar      1 ACP        -0.8008
     29 C2         -2.2122   -4.9785    2.1759 C.ar      1 ACP         0.6565
     30 N3         -1.5595   -3.7985    2.2572 N.ar      1 ACP        -0.7061
     31 C4         -2.0986   -2.9054    1.4140 C.ar      1 ACP         0.5715
     32 HOG3        1.2354    4.4450   -0.5955 H         1 ACP         0.4226
     33 HOB2       -4.8794    6.2288    0.6537 H         1 ACP         0.4482
     34 H3B1       -1.3021    7.0153    0.0132 H         1 ACP         0.1012
     35 H3B2       -1.9535    7.3779   -1.5826 H         1 ACP         0.1012
     36 H5'1       -1.1770    2.0503    0.6369 H         1 ACP         0.0481
     37 H5'2       -0.2082    3.2815    1.4877 H         1 ACP         0.0481
     38 H4'         0.0403    1.7078    3.4343 H         1 ACP         0.0904
     39 H3'         1.5906    1.4859    1.1353 H         1 ACP         0.0809
     40 HO3'        2.6839   -0.1150    2.2479 H         1 ACP         0.4528
     41 H2'        -0.0017    0.0018    0.0005 H         1 ACP         0.0594
     42 HO2'        2.0953   -0.9375    0.0709 H         1 ACP         0.4344
     43 H1'        -0.1998   -1.6319    2.6178 H         1 ACP         0.1127
     44 H8         -2.4576   -0.0639   -0.0831 H         1 ACP         0.1050
     45 HN61       -5.2371   -3.9234   -0.8448 H         1 ACP         0.4211
     46 HN62       -5.2909   -5.5485   -0.2160 H         1 ACP         0.4211
     47 H2         -1.8433   -5.7650    2.8259 H         1 ACP         0.0375
@<TRIPOS>BOND
     1    1    2 2
     2    1    3 1
     3    1    4 1
     4    1    8 1
     5    4   32 1
     6    5    6 2
     7    5    7 1
     8    5    8 1
     9    5   12 1
    10    7   33 1
    11    8   34 1
    12    8   35 1
    13    9   10 2
    14    9   11 1
    15    9   12 1
    16    9   13 1
    17   13   14 1
    18   14   15 1
    19   14   36 1
    20   14   37 1
    21   15   16 1
    22   15   17 1
    23   15   38 1
    24   16   21 1
    25   17   18 1
    26   17   19 1
    27   17   39 1
    28   18   40 1
    29   19   20 1
    30   19   21 1
    31   19   41 1
    32   20   42 1
    33   21   22 1
    34   21   43 1
    35   22   23 ar
    36   22   31 ar
    37   23   24 ar
    38   23   44 1
    39   24   25 ar
    40   25   26 ar
    41   25   31 ar
    42   26   27 1
    43   26   28 ar
    44   27   45 1
    45   27   46 1
    46   28   29 ar
    47   29   30 ar
    48   29   47 1
    49   30   31 ar
@<TRIPOS>SUBSTRUCTURE
     1 ACP         1 GROUP 0 A     ****
@<TRIPOS>MOLECULE
[[[5-(6-aminopurin-9-yl)-3,4-dihydroxy-tetrahydrofuran-2-yl]methoxy-oxido-phosphoryl]oxy-hydroxy-phosphoryl]methyl-hydroxy-phosphinate
   47    49     1     0     0
SMALL
USER_CHARGES

@<TRIPOS>ATOM
      1 PG         -6.4441    2.4734    3.8694 P.3       1 ACP         1.3516
      2 O1G        -7.4929    3.2828    4.5963 O.co2     1 ACP        -0.8379
      3 O2G        -4.9995    2.4420    4.3119 O.co2     1 ACP        -0.8379
      4 O3G        -6.9817    0.9469    3.6675 O.3       1 ACP        -0.7980
      5 PB         -5.3823    2.3070    0.8364 P.3       1 ACP         1.7688
      6 O1B        -5.5653    2.8754   -0.5389 O.2       1 ACP        -0.9167
      7 O2B        -5.6309    0.7143    0.9515 O.3       1 ACP        -0.8201
      8 C3B        -6.4706    3.0027    2.0979 C.3       1 ACP        -0.6097
      9 PA         -3.0801    3.8628    1.8538 P.3       1 ACP         1.5979
     10 O1A        -3.7975    4.5869    2.9722 O.co2     1 ACP        -0.8617
     11 O2A        -2.7276    4.5805    0.5692 O.co2     1 ACP        -0.8617
     12 O3A        -3.9225    2.5119    1.4945 O.3       1 ACP        -0.8283
     13 O5'        -1.7337    3.1724    2.4753 O.3       1 ACP        -0.5783
     14 C5'        -0.8811    2.4285    1.6206 C.3       1 ACP         0.1980
     15 C4'        -0.1994    1.3333    2.4288 C.3       1 ACP         0.0815
     16 O4'        -1.1285    0.2356    2.5840 O.3       1 ACP        -0.4127
     17 C3'         1.0324    0.7610    1.7344 C.3       1 ACP         0.0890
     18 O3'         1.9175    0.2377    2.7247 O.3       1 ACP        -0.6221
     19 C2'         0.4468   -0.3802    0.9263 C.3       1 ACP         0.1067
     20 O2'         1.3993   -1.3703    0.5961 O.3       1 ACP        -0.6053
     21 C1'        -0.6159   -0.9100    1.8769 C.3       1 ACP         0.4223
     22 N9         -1.7127   -1.6108    1.2130 N.pl3     1 ACP        -0.6834
     23 C8         -2.5476   -1.0844    0.2632 C.ar      1 ACP         0.5614
     24 N7         -3.4391   -1.9591   -0.1536 N.2       1 ACP        -0.5751
     25 C5         -3.1701   -3.1016    0.5574 C.ar      1 ACP        -0.2117
     26 C6         -3.7593   -4.3620    0.5656 C.ar      1 ACP         0.7177
     27 N6         -4.8512   -4.6493   -0.2712 N.pl3     1 ACP        -0.9401
     28 N1         -3.2659   -5.3144    1.3932 N.ar      1 ACP        -0.8008
     29 C2         -2.2122   -4.9785    2.1759 C.ar      1 ACP         0.6565
     30 N3         -1.5595   -3.7985    2.2572 N.ar      1 ACP        -0.7061
     31 C4         -2.0986   -2.9054    1.4140 C.ar      1 ACP         0.5715
     32 HOG3       -7.1993    0.4182    4.4646 H         1 ACP         0.4226
     33 HOB2       -5.0740    0.1070    0.4194 H         1 ACP         0.4482
     34 H3B1       -7.5030    2.8659    1.7569 H         1 ACP         0.1012
     35 H3B2       -6.2817    4.0813    2.1226 H         1 ACP         0.1012
     36 H5'1       -1.4802    1.9928    0.8147 H         1 ACP         0.0481
     37 H5'2       -0.1369    3.1042    1.1873 H         1 ACP         0.0481
     38 H4'         0.0403    1.7078    3.4343 H         1 ACP         0.0904
     39 H3'         1.5906    1.4859    1.1353 H         1 ACP         0.0809
     40 HO3'        2.6839   -0.1150    2.2479 H         1 ACP         0.4528
     41 H2'        -0.0017    0.0018    0.0005 H         1 ACP         0.0594
     42 HO2'        2.0953   -0.9375    0.0709 H         1 ACP         0.4344
     43 H1'        -0.1998   -1.6319    2.6178 H         1 ACP         0.1127
     44 H8         -2.4576   -0.0639   -0.0831 H         1 ACP         0.1050
     45 HN61       -5.2371   -3.9234   -0.8448 H         1 ACP         0.4211
     46 HN62       -5.2909   -5.5485   -0.2160 H         1 ACP         0.4211
     47 H2         -1.8433   -5.7650    2.8259 H         1 ACP         0.0375
@<TRIPOS>BOND
     1    1    2 2
     2    1    3 1
     3    1    4 1
     4    1    8 1
     5    4   32 1
     6    5    6 2
     7    5    7 1
     8    5    8 1
     9    5   12 1
    10    7   33 1
    11    8   34 1
    12    8   35 1
    13    9   10 2
    14    9   11 1
    15    9   12 1
    16    9   13 1
    17   13   14 1
    18   14   15 1
    19   14   36 1
    20   14   37 1
    21   15   16 1
    22   15   17 1
    23   15   38 1
    24   16   21 1
    25   17   18 1
    26   17   19 1
    27   17   39 1
    28   18   40 1
    29   19   20 1
    30   19   21 1
    31   19   41 1
    32   20   42 1
    33   21   22 1
    34   21   43 1
    35   22   23 ar
    36   22   31 ar
    37   23   24 ar
    38   23   44 1
    39   24   25 ar
    40   25   26 ar
    41   25   31 ar
    42   26   27 1
    43   26   28 ar
    44   27   45 1
    45   27   46 1
    46   28   29 ar
    47   29   30 ar
    48   29   47 1
    49   30   31 ar
@<TRIPOS>SUBSTRUCTURE
     1 ACP         1 GROUP 0 A     ****
@<TRIPOS>MOLECULE
[[[5-(6-aminopurin-9-yl)-3,4-dihydroxy-tetrahydrofuran-2-yl]methoxy-oxido-phosphoryl]oxy-hydroxy-phosphoryl]methyl-hydroxy-phosphinate
   47    49     1     0     0
SMALL
USER_CHARGES

@<TRIPOS>ATOM
      1 PG         -4.0820    7.6986    3.2992 P.3       1 ACP         1.3516
      2 O1G        -5.1766    7.9710    4.3047 O.co2     1 ACP        -0.8379
      3 O2G        -4.3717    7.1562    1.9188 O.co2     1 ACP        -0.8379
      4 O3G        -3.1218    9.0110    3.1747 O.3       1 ACP        -0.7980
      5 PB         -1.3828    5.9471    3.2783 P.3       1 ACP         1.7688
      6 O1B        -0.5334    5.0296    4.1058 O.2       1 ACP        -0.9167
      7 O2B        -0.6415    7.2941    2.7806 O.3       1 ACP        -0.8201
      8 C3B        -2.8700    6.5557    4.1015 C.3       1 ACP        -0.6097
      9 PA         -2.9650    4.0420    1.6588 P.3       1 ACP         1.5979
     10 O1A        -3.0500    3.8015    0.1672 O.co2     1 ACP        -0.8617
     11 O2A        -4.2197    4.2123    2.4872 O.co2     1 ACP        -0.8617
     12 O3A        -1.9798    5.3173    1.9171 O.3       1 ACP        -0.8283
     13 O5'        -2.0402    2.8619    2.3131 O.3       1 ACP        -0.5783
     14 C5'        -0.8811    2.4285    1.6206 C.3       1 ACP         0.1980
     15 C4'        -0.1994    1.3333    2.4288 C.3       1 ACP         0.0815
     16 O4'        -1.1285    0.2356    2.5840 O.3       1 ACP        -0.4127
     17 C3'         1.0324    0.7610    1.7344 C.3       1 ACP         0.0890
     18 O3'         1.9175    0.2377    2.7247 O.3       1 ACP        -0.6221
     19 C2'         0.4468   -0.3802    0.9263 C.3       1 ACP         0.1067
     20 O2'         1.3993   -1.3703    0.5961 O.3       1 ACP        -0.6053
     21 C1'        -0.6159   -0.9100    1.8769 C.3       1 ACP         0.4223
     22 N9         -1.7127   -1.6108    1.2130 N.pl3     1 ACP        -0.6834
     23 C8         -2.8641   -1.0399    0.7392 C.ar      1 ACP         0.5614
     24 N7         -3.6659   -1.9257    0.1858 N.2       1 ACP        -0.5751
     25 C5         -3.0053   -3.1223    0.3069 C.ar      1 ACP        -0.2117
     26 C6         -3.3321   -4.4178   -0.0813 C.ar      1 ACP         0.7177
     27 N6         -4.5476   -4.6866   -0.7335 N.pl3     1 ACP        -0.9401
     28 N1         -2.4608   -5.4225    0.1773 N.ar      1 ACP        -0.8008
     29 C2         -1.3053   -5.1020    0.8081 C.ar      1 ACP         0.6565
     30 N3         -0.8788   -3.8921    1.2315 N.ar      1 ACP        -0.7061
     31 C4         -1.7870   -2.9477    0.9438 C.ar      1 ACP         0.5715
     32 HOG3       -3.5229    9.8584    2.8861 H         1 ACP         0.4226
     33 HOB2        0.1579    7.2161    2.2175 H         1 ACP         0.4482
     34 H3B1       -2.5571    7.0491    5.0286 H         1 ACP         0.1012
     35 H3B2       -3.4576    5.6772    4.3889 H         1 ACP         0.1012
     36 H5'1       -1.1770    2.0503    0.6369 H         1 ACP         0.0481
     37 H5'2       -0.2082    3.2815    1.4877 H         1 ACP         0.0481
     38 H4'         0.0403    1.7078    3.4343 H         1 ACP         0.0904
     39 H3'         1.5906    1.4859    1.1353 H         1 ACP         0.0809
     40 HO3'        2.6839   -0.1150    2.2479 H         1 ACP         0.4528
     41 H2'        -0.0017    0.0018    0.0005 H         1 ACP         0.0594
     42 HO2'        2.0953   -0.9375    0.0709 H         1 ACP         0.4344
     43 H1'        -0.1998   -1.6319    2.6178 H         1 ACP         0.1127
     44 H8         -3.0609    0.0200    0.8250 H         1 ACP         0.1050
     45 HN61       -5.2046   -3.9433   -0.8775 H         1 ACP         0.4211
     46 HN62       -4.7849   -5.6332   -0.9625 H         1 ACP         0.4211
     47 H2         -0.6318   -5.9307    0.9993 H         1 ACP         0.0375
@<TRIPOS>BOND
     1    1    2 2
     2    1    3 1
     3    1    4 1
     4    1    8 1
     5    4   32 1
     6    5    6 2
     7    5    7 1
     8    5    8 1
     9    5   12 1
    10    7   33 1
    11    8   34 1
    12    8   35 1
    13    9   10 2
    14    9   11 1
    15    9   12 1
    16    9   13 1
    17   13   14 1
    18   14   15 1
    19   14   36 1
    20   14   37 1
    21   15   16 1
    22   15   17 1
    23   15   38 1
    24   16   21 1
    25   17   18 1
    26   17   19 1
    27   17   39 1
    28   18   40 1
    29   19   20 1
    30   19   21 1
    31   19   41 1
    32   20   42 1
    33   21   22 1
    34   21   43 1
    35   22   23 ar
    36   22   31 ar
    37   23   24 ar
    38   23   44 1
    39   24   25 ar
    40   25   26 ar
    41   25   31 ar
    42   26   27 1
    43   26   28 ar
    44   27   45 1
    45   27   46 1
    46   28   29 ar
    47   29   30 ar
    48   29   47 1
    49   30   31 ar
@<TRIPOS>SUBSTRUCTURE
     1 ACP         1 GROUP 0 A     ****
@<TRIPOS>MOLECULE
[[[5-(6-aminopurin-9-yl)-3,4-dihydroxy-tetrahydrofuran-2-yl]methoxy-oxido-phosphoryl]oxy-hydroxy-phosphoryl]methyl-hydroxy-phosphinate
   47    49     1     0     0
SMALL
USER_CHARGES

@<TRIPOS>ATOM
      1 PG         -4.0435    6.9925    2.1958 P.3       1 ACP         1.3516
      2 O1G        -3.1429    6.1570    3.0757 O.co2     1 ACP        -0.8379
      3 O2G        -5.5074    7.2015    2.5073 O.co2     1 ACP        -0.8379
      4 O3G        -3.3384    8.4361    1.9147 O.3       1 ACP        -0.7980
      5 PB         -2.3927    6.2106   -0.4533 P.3       1 ACP         1.7688
      6 O1B        -1.7257    7.5298   -0.7039 O.2       1 ACP        -0.9167
      7 O2B        -2.8027    5.3931   -1.7857 O.3       1 ACP        -0.8201
      8 C3B        -3.9333    6.3032    0.4836 C.3       1 ACP        -0.6097
      9 PA         -0.0886    4.4447    0.1191 P.3       1 ACP         1.5979
     10 O1A         0.9772    5.5156    0.2036 O.co2     1 ACP        -0.8617
     11 O2A        -0.1967    3.5562   -1.1009 O.co2     1 ACP        -0.8617
     12 O3A        -1.5378    5.1403    0.4009 O.3       1 ACP        -0.8283
     13 O5'         0.0181    3.5132    1.4596 O.3       1 ACP        -0.5783
     14 C5'        -0.8811    2.4285    1.6206 C.3       1 ACP         0.1980
     15 C4'        -0.1994    1.3333    2.4288 C.3       1 ACP         0.0815
     16 O4'        -1.1285    0.2356    2.5840 O.3       1 ACP        -0.4127
     17 C3'         1.0324    0.7610    1.7344 C.3       1 ACP         0.0890
     18 O3'         1.9175    0.2377    2.7247 O.3       1 ACP        -0.6221
     19 C2'         0.4468   -0.3802    0.9263 C.3       1 ACP         0.1067
     20 O2'         1.3993   -1.3703    0.5961 O.3       1 ACP        -0.6053
     21 C1'        -0.6159   -0.9100    1.8769 C.3       1 ACP         0.4223
     22 N9         -1.7127   -1.6108    1.2130 N.pl3     1 ACP        -0.6834
     23 C8         -2.8641   -1.0399    0.7392 C.ar      1 ACP         0.5614
     24 N7         -3.6659   -1.9257    0.1858 N.2       1 ACP        -0.5751
     25 C5         -3.0053   -3.1223    0.3069 C.ar      1 ACP        -0.2117
     26 C6         -3.3321   -4.4178   -0.0813 C.ar      1 ACP         0.7177
     27 N6         -4.5476   -4.6866   -0.7335 N.pl3     1 ACP        -0.9401
     28 N1         -2.4608   -5.4225    0.1773 N.ar      1 ACP        -0.8008
     29 C2         -1.3053   -5.1020    0.8081 C.ar      1 ACP         0.6565
     30 N3         -0.8788   -3.8921    1.2315 N.ar      1 ACP        -0.7061
     31 C4         -1.7870   -2.9477    0.9438 C.ar      1 ACP         0.5715
     32 HOG3       -3.1307    9.0124    2.6808 H         1 ACP         0.4226
     33 HOB2       -2.0999    5.1332   -2.4186 H         1 ACP         0.4482
     34 H3B1       -4.3494    5.2908    0.5379 H         1 ACP         0.1012
     35 H3B2       -4.6311    6.9049   -0.1086 H         1 ACP         0.1012
     36 H5'1       -1.7769    2.7851    2.1387 H         1 ACP         0.0481
     37 H5'2       -1.1653    2.0543    0.6320 H         1 ACP         0.0481
     38 H4'         0.0403    1.7078    3.4343 H         1 ACP         0.0904
     39 H3'         1.5906    1.4859    1.1353 H         1 ACP         0.0809
     40 HO3'        2.6839   -0.1150    2.2479 H         1 ACP         0.4528
     41 H2'        -0.0017    0.0018    0.0005 H         1 ACP         0.0594
     42 HO2'        2.0953   -0.9375    0.0709 H         1 ACP         0.4344
     43 H1'        -0.1998   -1.6319    2.6178 H         1 ACP         0.1127
     44 H8         -3.0609    0.0200    0.8250 H         1 ACP         0.1050
     45 HN61       -5.2046   -3.9433   -0.8775 H         1 ACP         0.4211
     46 HN62       -4.7849   -5.6332   -0.9625 H         1 ACP         0.4211
     47 H2         -0.6318   -5.9307    0.9993 H         1 ACP         0.0375
@<TRIPOS>BOND
     1    1    2 2
     2    1    3 1
     3    1    4 1
     4    1    8 1
     5    4   32 1
     6    5    6 2
     7    5    7 1
     8    5    8 1
     9    5   12 1
    10    7   33 1
    11    8   34 1
    12    8   35 1
    13    9   10 2
    14    9   11 1
    15    9   12 1
    16    9   13 1
    17   13   14 1
    18   14   15 1
    19   14   36 1
    20   14   37 1
    21   15   16 1
    22   15   17 1
    23   15   38 1
    24   16   21 1
    25   17   18 1
    26   17   19 1
    27   17   39 1
    28   18   40 1
    29   19   20 1
    30   19   21 1
    31   19   41 1
    32   20   42 1
    33   21   22 1
    34   21   43 1
    35   22   23 ar
    36   22   31 ar
    37   23   24 ar
    38   23   44 1
    39   24   25 ar
    40   25   26 ar
    41   25   31 ar
    42   26   27 1
    43   26   28 ar
    44   27   45 1
    45   27   46 1
    46   28   29 ar
    47   29   30 ar
    48   29   47 1
    49   30   31 ar
@<TRIPOS>SUBSTRUCTURE
     1 ACP         1 GROUP 0 A     ****
@<TRIPOS>MOLECULE
[[[5-(6-aminopurin-9-yl)-3,4-dihydroxy-tetrahydrofuran-2-yl]methoxy-oxido-phosphoryl]oxy-hydroxy-phosphoryl]methyl-hydroxy-phosphinate
   47    49     1     0     0
SMALL
USER_CHARGES

@<TRIPOS>ATOM
      1 PG         -1.1820    5.2490    6.4285 P.3       1 ACP         1.3516
      2 O1G        -0.2843    4.1952    5.8227 O.co2     1 ACP        -0.8379
      3 O2G        -1.9419    5.0190    7.7144 O.co2     1 ACP        -0.8379
      4 O3G        -0.3718    6.6613    6.5237 O.3       1 ACP        -0.7980
      5 PB         -1.9507    6.4369    3.5386 P.3       1 ACP         1.7688
      6 O1B        -1.1905    7.7271    3.6129 O.2       1 ACP        -0.9167
      7 O2B        -3.3514    6.5194    2.7367 O.3       1 ACP        -0.8201
      8 C3B        -2.4123    5.7331    5.1359 C.3       1 ACP        -0.6097
      9 PA         -0.5788    5.0303    1.3262 P.3       1 ACP         1.5979
     10 O1A         0.5862    5.9826    1.1662 O.co2     1 ACP        -0.8617
     11 O2A        -1.7218    5.0335    0.3346 O.co2     1 ACP        -0.8617
     12 O3A        -1.1812    5.2058    2.8328 O.3       1 ACP        -0.8283
     13 O5'         0.0181    3.5132    1.4596 O.3       1 ACP        -0.5783
     14 C5'        -0.8811    2.4285    1.6206 C.3       1 ACP         0.1980
     15 C4'        -0.1994    1.3333    2.4288 C.3       1 ACP         0.0815
     16 O4'        -1.1285    0.2356    2.5840 O.3       1 ACP        -0.4127
     17 C3'         1.0324    0.7610    1.7344 C.3       1 ACP         0.0890
     18 O3'         1.9175    0.2377    2.7247 O.3       1 ACP        -0.6221
     19 C2'         0.4468   -0.3802    0.9263 C.3       1 ACP         0.1067
     20 O2'         1.3993   -1.3703    0.5961 O.3       1 ACP        -0.6053
     21 C1'        -0.6159   -0.9100    1.8769 C.3       1 ACP         0.4223
     22 N9         -1.7127   -1.6108    1.2130 N.pl3     1 ACP        -0.6834
     23 C8         -2.8641   -1.0399    0.7392 C.ar      1 ACP         0.5614
     24 N7         -3.6659   -1.9257    0.1858 N.2       1 ACP        -0.5751
     25 C5         -3.0053   -3.1223    0.3069 C.ar      1 ACP        -0.2117
     26 C6         -3.3321   -4.4178   -0.0813 C.ar      1 ACP         0.7177
     27 N6         -4.5476   -4.6866   -0.7335 N.pl3     1 ACP        -0.9401
     28 N1         -2.4608   -5.4225    0.1773 N.ar      1 ACP        -0.8008
     29 C2         -1.3053   -5.1020    0.8081 C.ar      1 ACP         0.6565
     30 N3         -0.8788   -3.8921    1.2315 N.ar      1 ACP        -0.7061
     31 C4         -1.7870   -2.9477    0.9438 C.ar      1 ACP         0.5715
     32 HOG3        0.4502    6.6940    7.0581 H         1 ACP         0.4226
     33 HOB2       -3.3438    6.7898    1.7939 H         1 ACP         0.4482
     34 H3B1       -3.0150    4.8387    4.9421 H         1 ACP         0.1012
     35 H3B2       -3.0673    6.4603    5.6276 H         1 ACP         0.1012
     36 H5'1       -1.7769    2.7851    2.1387 H         1 ACP         0.0481
     37 H5'2       -1.1653    2.0543    0.6320 H         1 ACP         0.0481
     38 H4'         0.0403    1.7078    3.4343 H         1 ACP         0.0904
     39 H3'         1.5906    1.4859    1.1353 H         1 ACP         0.0809
     40 HO3'        2.1521    0.9800    3.3017 H         1 ACP         0.4528
     41 H2'        -0.0017    0.0018    0.0005 H         1 ACP         0.0594
     42 HO2'        0.9369   -2.0558    0.0825 H         1 ACP         0.4344
     43 H1'        -0.1998   -1.6319    2.6178 H         1 ACP         0.1127
     44 H8         -3.0609    0.0200    0.8250 H         1 ACP         0.1050
     45 HN61       -5.2046   -3.9433   -0.8775 H         1 ACP         0.4211
     46 HN62       -4.7849   -5.6332   -0.9625 H         1 ACP         0.4211
     47 H2         -0.6318   -5.9307    0.9993 H         1 ACP         0.0375
@<TRIPOS>BOND
     1    1    2 2
     2    1    3 1
     3    1    4 1
     4    1    8 1
     5    4   32 1
     6    5    6 2
     7    5    7 1
     8    5    8 1
     9    5   12 1
    10    7   33 1
    11    8   34 1
    12    8   35 1
    13    9   10 2
    14    9   11 1
    15    9   12 1
    16    9   13 1
    17   13   14 1
    18   14   15 1
    19   14   36 1
    20   14   37 1
    21   15   16 1
    22   15   17 1
    23   15   38 1
    24   16   21 1
    25   17   18 1
    26   17   19 1
    27   17   39 1
    28   18   40 1
    29   19   20 1
    30   19   21 1
    31   19   41 1
    32   20   42 1
    33   21   22 1
    34   21   43 1
    35   22   23 ar
    36   22   31 ar
    37   23   24 ar
    38   23   44 1
    39   24   25 ar
    40   25   26 ar
    41   25   31 ar
    42   26   27 1
    43   26   28 ar
    44   27   45 1
    45   27   46 1
    46   28   29 ar
    47   29   30 ar
    48   29   47 1
    49   30   31 ar
@<TRIPOS>SUBSTRUCTURE
     1 ACP         1 GROUP 0 A     ****
@<TRIPOS>MOLECULE
[[[5-(6-aminopurin-9-yl)-3,4-dihydroxy-tetrahydrofuran-2-yl]methoxy-oxido-phosphoryl]oxy-hydroxy-phosphoryl]methyl-hydroxy-phosphinate
   47    49     1     0     0
SMALL
USER_CHARGES

@<TRIPOS>ATOM
      1 PG          5.6012    3.7471   -4.8530 P.3       1 ACP         1.3516
      2 O1G         5.2386    2.9646   -6.0938 O.co2     1 ACP        -0.8379
      3 O2G         6.0900    5.1758   -4.9145 O.co2     1 ACP        -0.8379
      4 O3G         4.3879    3.6363   -3.7688 O.3       1 ACP        -0.7980
      5 PB          7.6096    3.3046   -2.3782 P.3       1 ACP         1.7688
      6 O1B         8.3472    4.6082   -2.4473 O.2       1 ACP        -0.9167
      7 O2B         8.5065    2.0404   -1.9210 O.3       1 ACP        -0.8201
      8 C3B         6.8709    2.7653   -3.9348 C.3       1 ACP        -0.6097
      9 PA          6.2488    3.4955    0.2423 P.3       1 ACP         1.5979
     10 O1A         6.5597    4.9479    0.5318 O.co2     1 ACP        -0.8617
     11 O2A         6.9993    2.3884    0.9499 O.co2     1 ACP        -0.8617
     12 O3A         6.3499    3.2611   -1.3696 O.3       1 ACP        -0.8283
     13 O5'         4.6405    3.2701    0.4379 O.3       1 ACP        -0.5783
     14 C5'         4.0922    1.9801    0.2227 C.3       1 ACP         0.1980
     15 C4'         2.5944    2.0310    0.4653 C.3       1 ACP         0.0815
     16 O4'         1.9327    2.5740   -0.6889 O.3       1 ACP        -0.4127
     17 C3'         1.9685    0.6634    0.6767 C.3       1 ACP         0.0890
     18 O3'         2.1425    0.1975    1.9977 O.3       1 ACP        -0.6221
     19 C2'         0.5176    0.9128    0.3099 C.3       1 ACP         0.1067
     20 O2'        -0.2103    1.4454    1.4152 O.3       1 ACP        -0.6053
     21 C1'         0.6219    1.9765   -0.7844 C.3       1 ACP         0.4223
     22 N9          0.4237    1.4496   -2.1357 N.pl3     1 ACP        -0.6834
     23 C8         -0.7736    1.3475   -2.7932 C.ar      1 ACP         0.5614
     24 N7         -0.6356    0.8373   -3.9991 N.2       1 ACP        -0.5751
     25 C5          0.7095    0.5981   -4.1281 C.ar      1 ACP        -0.2117
     26 C6          1.4733    0.0704   -5.1643 C.ar      1 ACP         0.7177
     27 N6          0.8693   -0.3355   -6.3666 N.pl3     1 ACP        -0.9401
     28 N1          2.8130   -0.0482   -5.0009 N.ar      1 ACP        -0.8008
     29 C2          3.3380    0.3602   -3.8204 C.ar      1 ACP         0.6565
     30 N3          2.7052    0.8841   -2.7480 N.ar      1 ACP        -0.7061
     31 C4          1.3867    0.9726   -2.9785 C.ar      1 ACP         0.5715
     32 HOG3        3.5006    3.9673   -4.0242 H         1 ACP         0.4226
     33 HOB2        8.9411    2.0595   -1.0418 H         1 ACP         0.4482
     34 H3B1        6.4258    1.7783   -3.7659 H         1 ACP         0.1012
     35 H3B2        7.6917    2.6288   -4.6470 H         1 ACP         0.1012
     36 H5'1        4.3030    1.6731   -0.8066 H         1 ACP         0.0481
     37 H5'2        4.5679    1.2740    0.9106 H         1 ACP         0.0481
     38 H4'         2.3751    2.7029    1.3156 H         1 ACP         0.0904
     39 H3'         2.4336   -0.1217   -0.0015 H         1 ACP         0.0809
     40 HO3'        1.7160   -0.6716    2.0397 H         1 ACP         0.4528
     41 H2'         0.0316    0.0155   -0.0339 H         1 ACP         0.0594
     42 HO2'       -0.1608    0.7921    2.1351 H         1 ACP         0.4344
     43 H1'        -0.1474    2.7798   -0.6651 H         1 ACP         0.1127
     44 H8         -1.7070    1.6599   -2.3451 H         1 ACP         0.1050
     45 HN61       -0.1277   -0.2866   -6.4583 H         1 ACP         0.4211
     46 HN62        1.4308   -0.7566   -7.0823 H         1 ACP         0.4211
     47 H2          4.4130    0.2505   -3.7241 H         1 ACP         0.0375
@<TRIPOS>BOND
     1    1    2 2
     2    1    3 1
     3    1    4 1
     4    1    8 1
     5    4   32 1
     6    5    6 2
     7    5    7 1
     8    5    8 1
     9    5   12 1
    10    7   33 1
    11    8   34 1
    12    8   35 1
    13    9   10 2
    14    9   11 1
    15    9   12 1
    16    9   13 1
    17   13   14 1
    18   14   15 1
    19   14   36 1
    20   14   37 1
    21   15   16 1
    22   15   17 1
    23   15   38 1
    24   16   21 1
    25   17   18 1
    26   17   19 1
    27   17   39 1
    28   18   40 1
    29   19   20 1
    30   19   21 1
    31   19   41 1
    32   20   42 1
    33   21   22 1
    34   21   43 1
    35   22   23 ar
    36   22   31 ar
    37   23   24 ar
    38   23   44 1
    39   24   25 ar
    40   25   26 ar
    41   25   31 ar
    42   26   27 1
    43   26   28 ar
    44   27   45 1
    45   27   46 1
    46   28   29 ar
    47   29   30 ar
    48   29   47 1
    49   30   31 ar
@<TRIPOS>SUBSTRUCTURE
     1 ACP         1 GROUP 0 A     ****
@<TRIPOS>MOLECULE
[[[5-(6-aminopurin-9-yl)-3,4-dihydroxy-tetrahydrofuran-2-yl]methoxy-oxido-phosphoryl]oxy-hydroxy-phosphoryl]methyl-hydroxy-phosphinate
   47    49     1     0     0
SMALL
USER_CHARGES

@<TRIPOS>ATOM
      1 PG          6.1840    1.4745   -4.4859 P.3       1 ACP         1.3516
      2 O1G         6.6560    0.6394   -3.3184 O.co2     1 ACP        -0.8379
      3 O2G         6.7220    1.2822   -5.8850 O.co2     1 ACP        -0.8379
      4 O3G         4.5536    1.4742   -4.5281 O.3       1 ACP        -0.7980
      5 PB          5.6565    4.0326   -2.6065 P.3       1 ACP         1.7688
      6 O1B         4.1573    4.0238   -2.6251 O.2       1 ACP        -0.9167
      7 O2B         6.3264    5.5026   -2.5612 O.3       1 ACP        -0.8201
      8 C3B         6.4393    3.2488   -4.0322 C.3       1 ACP        -0.6097
      9 PA          6.2488    3.4955    0.2423 P.3       1 ACP         1.5979
     10 O1A         6.5597    4.9479    0.5318 O.co2     1 ACP        -0.8617
     11 O2A         6.9993    2.3884    0.9499 O.co2     1 ACP        -0.8617
     12 O3A         6.3499    3.2611   -1.3696 O.3       1 ACP        -0.8283
     13 O5'         4.6405    3.2701    0.4379 O.3       1 ACP        -0.5783
     14 C5'         4.0922    1.9801    0.2227 C.3       1 ACP         0.1980
     15 C4'         2.5944    2.0310    0.4653 C.3       1 ACP         0.0815
     16 O4'         1.9327    2.5740   -0.6889 O.3       1 ACP        -0.4127
     17 C3'         1.9685    0.6634    0.6767 C.3       1 ACP         0.0890
     18 O3'         2.1425    0.1975    1.9977 O.3       1 ACP        -0.6221
     19 C2'         0.5176    0.9128    0.3099 C.3       1 ACP         0.1067
     20 O2'        -0.2103    1.4454    1.4152 O.3       1 ACP        -0.6053
     21 C1'         0.6219    1.9765   -0.7844 C.3       1 ACP         0.4223
     22 N9          0.4237    1.4496   -2.1357 N.pl3     1 ACP        -0.6834
     23 C8          1.4026    0.9717   -2.9660 C.ar      1 ACP         0.5614
     24 N7          0.9183    0.5619   -4.1197 N.2       1 ACP        -0.5751
     25 C5         -0.4330    0.7845   -4.0331 C.ar      1 ACP        -0.2117
     26 C6         -1.4794    0.5615   -4.9225 C.ar      1 ACP         0.7177
     27 N6         -1.2378    0.0044   -6.1899 N.pl3     1 ACP        -0.9401
     28 N1         -2.7406    0.8885   -4.5512 N.ar      1 ACP        -0.8008
     29 C2         -2.9113    1.4216   -3.3172 C.ar      1 ACP         0.6565
     30 N3         -1.9824    1.6843   -2.3721 N.ar      1 ACP        -0.7061
     31 C4         -0.7613    1.3370   -2.8054 C.ar      1 ACP         0.5715
     32 HOG3        4.0884    0.6164   -4.6284 H         1 ACP         0.4226
     33 HOB2        6.1238    6.0938   -1.8053 H         1 ACP         0.4482
     34 H3B1        7.5223    3.3819   -3.9304 H         1 ACP         0.1012
     35 H3B2        6.1290    3.8142   -4.9174 H         1 ACP         0.1012
     36 H5'1        4.3030    1.6731   -0.8066 H         1 ACP         0.0481
     37 H5'2        4.5679    1.2740    0.9106 H         1 ACP         0.0481
     38 H4'         2.3751    2.7029    1.3156 H         1 ACP         0.0904
     39 H3'         2.4336   -0.1217   -0.0015 H         1 ACP         0.0809
     40 HO3'        1.7160   -0.6716    2.0397 H         1 ACP         0.4528
     41 H2'         0.0316    0.0155   -0.0339 H         1 ACP         0.0594
     42 HO2'       -0.1608    0.7921    2.1351 H         1 ACP         0.4344
     43 H1'        -0.1474    2.7798   -0.6651 H         1 ACP         0.1127
     44 H8          2.4442    0.9470   -2.6763 H         1 ACP         0.1050
     45 HN61       -0.2955   -0.1901   -6.4713 H         1 ACP         0.4211
     46 HN62       -1.9987   -0.1045   -6.8334 H         1 ACP         0.4211
     47 H2         -3.9335    1.6716   -3.0534 H         1 ACP         0.0375
@<TRIPOS>BOND
     1    1    2 2
     2    1    3 1
     3    1    4 1
     4    1    8 1
     5    4   32 1
     6    5    6 2
     7    5    7 1
     8    5    8 1
     9    5   12 1
    10    7   33 1
    11    8   34 1
    12    8   35 1
    13    9   10 2
    14    9   11 1
    15    9   12 1
    16    9   13 1
    17   13   14 1
    18   14   15 1
    19   14   36 1
    20   14   37 1
    21   15   16 1
    22   15   17 1
    23   15   38 1
    24   16   21 1
    25   17   18 1
    26   17   19 1
    27   17   39 1
    28   18   40 1
    29   19   20 1
    30   19   21 1
    31   19   41 1
    32   20   42 1
    33   21   22 1
    34   21   43 1
    35   22   23 ar
    36   22   31 ar
    37   23   24 ar
    38   23   44 1
    39   24   25 ar
    40   25   26 ar
    41   25   31 ar
    42   26   27 1
    43   26   28 ar
    44   27   45 1
    45   27   46 1
    46   28   29 ar
    47   29   30 ar
    48   29   47 1
    49   30   31 ar
@<TRIPOS>SUBSTRUCTURE
     1 ACP         1 GROUP 0 A     ****
@<TRIPOS>MOLECULE
[[[5-(6-aminopurin-9-yl)-3,4-dihydroxy-tetrahydrofuran-2-yl]methoxy-oxido-phosphoryl]oxy-hydroxy-phosphoryl]methyl-hydroxy-phosphinate
   47    49     1     0     0
SMALL
USER_CHARGES

@<TRIPOS>ATOM
      1 PG         -4.9473    4.8210    0.9242 P.3       1 ACP         1.3516
      2 O1G        -4.0766    3.9136    1.7620 O.co2     1 ACP        -0.8379
      3 O2G        -5.6279    4.3455   -0.3385 O.co2     1 ACP        -0.8379
      4 O3G        -6.0404    5.5597    1.8831 O.3       1 ACP        -0.7980
      5 PB         -2.3927    6.2106   -0.4533 P.3       1 ACP         1.7688
      6 O1B        -1.7257    7.5298   -0.7039 O.2       1 ACP        -0.9167
      7 O2B        -2.8027    5.3931   -1.7857 O.3       1 ACP        -0.8201
      8 C3B        -3.9333    6.3032    0.4836 C.3       1 ACP        -0.6097
      9 PA         -0.0886    4.4447    0.1191 P.3       1 ACP         1.5979
     10 O1A         0.9772    5.5156    0.2036 O.co2     1 ACP        -0.8617
     11 O2A        -0.1967    3.5562   -1.1009 O.co2     1 ACP        -0.8617
     12 O3A        -1.5378    5.1403    0.4009 O.3       1 ACP        -0.8283
     13 O5'         0.0181    3.5132    1.4596 O.3       1 ACP        -0.5783
     14 C5'        -0.8811    2.4285    1.6206 C.3       1 ACP         0.1980
     15 C4'        -0.1994    1.3333    2.4288 C.3       1 ACP         0.0815
     16 O4'        -1.1285    0.2356    2.5840 O.3       1 ACP        -0.4127
     17 C3'         1.0324    0.7610    1.7344 C.3       1 ACP         0.0890
     18 O3'         1.9175    0.2377    2.7247 O.3       1 ACP        -0.6221
     19 C2'         0.4468   -0.3802    0.9263 C.3       1 ACP         0.1067
     20 O2'         1.3993   -1.3703    0.5961 O.3       1 ACP        -0.6053
     21 C1'        -0.6159   -0.9100    1.8769 C.3       1 ACP         0.4223
     22 N9         -1.7127   -1.6108    1.2130 N.pl3     1 ACP        -0.6834
     23 C8         -2.8641   -1.0399    0.7392 C.ar      1 ACP         0.5614
     24 N7         -3.6659   -1.9257    0.1858 N.2       1 ACP        -0.5751
     25 C5         -3.0053   -3.1223    0.3069 C.ar      1 ACP        -0.2117
     26 C6         -3.3321   -4.4178   -0.0813 C.ar      1 ACP         0.7177
     27 N6         -4.5476   -4.6866   -0.7335 N.pl3     1 ACP        -0.9401
     28 N1         -2.4608   -5.4225    0.1773 N.ar      1 ACP        -0.8008
     29 C2         -1.3053   -5.1020    0.8081 C.ar      1 ACP         0.6565
     30 N3         -0.8788   -3.8921    1.2315 N.ar      1 ACP        -0.7061
     31 C4         -1.7870   -2.9477    0.9438 C.ar      1 ACP         0.5715
     32 HOG3       -6.6706    5.0035    2.3888 H         1 ACP         0.4226
     33 HOB2       -2.0999    5.1332   -2.4186 H         1 ACP         0.4482
     34 H3B1       -4.6067    6.9817   -0.0523 H         1 ACP         0.1012
     35 H3B2       -3.6960    6.7781    1.4416 H         1 ACP         0.1012
     36 H5'1       -1.7769    2.7851    2.1387 H         1 ACP         0.0481
     37 H5'2       -1.1653    2.0543    0.6320 H         1 ACP         0.0481
     38 H4'         0.0403    1.7078    3.4343 H         1 ACP         0.0904
     39 H3'         1.5906    1.4859    1.1353 H         1 ACP         0.0809
     40 HO3'        2.6839   -0.1150    2.2479 H         1 ACP         0.4528
     41 H2'        -0.0017    0.0018    0.0005 H         1 ACP         0.0594
     42 HO2'        2.0953   -0.9375    0.0709 H         1 ACP         0.4344
     43 H1'        -0.1998   -1.6319    2.6178 H         1 ACP         0.1127
     44 H8         -3.0609    0.0200    0.8250 H         1 ACP         0.1050
     45 HN61       -5.2046   -3.9433   -0.8775 H         1 ACP         0.4211
     46 HN62       -4.7849   -5.6332   -0.9625 H         1 ACP         0.4211
     47 H2         -0.6318   -5.9307    0.9993 H         1 ACP         0.0375
@<TRIPOS>BOND
     1    1    2 2
     2    1    3 1
     3    1    4 1
     4    1    8 1
     5    4   32 1
     6    5    6 2
     7    5    7 1
     8    5    8 1
     9    5   12 1
    10    7   33 1
    11    8   34 1
    12    8   35 1
    13    9   10 2
    14    9   11 1
    15    9   12 1
    16    9   13 1
    17   13   14 1
    18   14   15 1
    19   14   36 1
    20   14   37 1
    21   15   16 1
    22   15   17 1
    23   15   38 1
    24   16   21 1
    25   17   18 1
    26   17   19 1
    27   17   39 1
    28   18   40 1
    29   19   20 1
    30   19   21 1
    31   19   41 1
    32   20   42 1
    33   21   22 1
    34   21   43 1
    35   22   23 ar
    36   22   31 ar
    37   23   24 ar
    38   23   44 1
    39   24   25 ar
    40   25   26 ar
    41   25   31 ar
    42   26   27 1
    43   26   28 ar
    44   27   45 1
    45   27   46 1
    46   28   29 ar
    47   29   30 ar
    48   29   47 1
    49   30   31 ar
@<TRIPOS>SUBSTRUCTURE
     1 ACP         1 GROUP 0 A     ****
@<TRIPOS>MOLECULE
[[[5-(6-aminopurin-9-yl)-3,4-dihydroxy-tetrahydrofuran-2-yl]methoxy-oxido-phosphoryl]oxy-hydroxy-phosphoryl]methyl-hydroxy-phosphinate
   47    49     1     0     0
SMALL
USER_CHARGES

@<TRIPOS>ATOM
      1 PG          1.0738    6.8752    1.4188 P.3       1 ACP         1.3516
      2 O1G         1.6938    5.5462    1.7829 O.co2     1 ACP        -0.8379
      3 O2G         1.8942    8.1366    1.2785 O.co2     1 ACP        -0.8379
      4 O3G         0.1341    6.6910    0.0985 O.3       1 ACP        -0.7980
      5 PB         -1.3828    5.9471    3.2783 P.3       1 ACP         1.7688
      6 O1B        -2.3943    6.4334    4.2725 O.2       1 ACP        -0.9167
      7 O2B        -0.3908    4.7953    3.8269 O.3       1 ACP        -0.8201
      8 C3B        -0.2613    7.2158    2.6518 C.3       1 ACP        -0.6097
      9 PA         -2.9650    4.0420    1.6588 P.3       1 ACP         1.5979
     10 O1A        -3.0500    3.8015    0.1672 O.co2     1 ACP        -0.8617
     11 O2A        -4.2197    4.2123    2.4872 O.co2     1 ACP        -0.8617
     12 O3A        -1.9798    5.3173    1.9171 O.3       1 ACP        -0.8283
     13 O5'        -2.0402    2.8619    2.3131 O.3       1 ACP        -0.5783
     14 C5'        -0.8811    2.4285    1.6206 C.3       1 ACP         0.1980
     15 C4'        -0.1994    1.3333    2.4288 C.3       1 ACP         0.0815
     16 O4'        -1.1285    0.2356    2.5840 O.3       1 ACP        -0.4127
     17 C3'         1.0324    0.7610    1.7344 C.3       1 ACP         0.0890
     18 O3'         1.9175    0.2377    2.7247 O.3       1 ACP        -0.6221
     19 C2'         0.4468   -0.3802    0.9263 C.3       1 ACP         0.1067
     20 O2'         1.3993   -1.3703    0.5961 O.3       1 ACP        -0.6053
     21 C1'        -0.6159   -0.9100    1.8769 C.3       1 ACP         0.4223
     22 N9         -1.7127   -1.6108    1.2130 N.pl3     1 ACP        -0.6834
     23 C8         -2.0877   -2.9101    1.4304 C.ar      1 ACP         0.5614
     24 N7         -3.1152   -3.2613    0.6857 N.2       1 ACP        -0.5751
     25 C5         -3.4186   -2.1409   -0.0462 C.ar      1 ACP        -0.2117
     26 C6         -4.3953   -1.8809   -1.0023 C.ar      1 ACP         0.7177
     27 N6         -5.3118   -2.8767   -1.3812 N.pl3     1 ACP        -0.9401
     28 N1         -4.4538   -0.6507   -1.5667 N.ar      1 ACP        -0.8008
     29 C2         -3.5442    0.2679   -1.1609 C.ar      1 ACP         0.6565
     30 N3         -2.5561    0.1361   -0.2491 N.ar      1 ACP        -0.7061
     31 C4         -2.5568   -1.1019    0.2674 C.ar      1 ACP         0.5715
     32 HOG3        0.5499    6.3721   -0.7308 H         1 ACP         0.4226
     33 HOB2       -0.7735    3.9476    4.1384 H         1 ACP         0.4482
     34 H3B1        0.2340    7.6754    3.5146 H         1 ACP         0.1012
     35 H3B2       -0.8823    7.9902    2.1891 H         1 ACP         0.1012
     36 H5'1       -1.1770    2.0503    0.6369 H         1 ACP         0.0481
     37 H5'2       -0.2082    3.2815    1.4877 H         1 ACP         0.0481
     38 H4'         0.0403    1.7078    3.4343 H         1 ACP         0.0904
     39 H3'         1.5906    1.4859    1.1353 H         1 ACP         0.0809
     40 HO3'        2.1521    0.9800    3.3017 H         1 ACP         0.4528
     41 H2'        -0.0017    0.0018    0.0005 H         1 ACP         0.0594
     42 HO2'        0.9369   -2.0558    0.0825 H         1 ACP         0.4344
     43 H1'        -0.1998   -1.6319    2.6178 H         1 ACP         0.1127
     44 H8         -1.5778   -3.5473    2.1399 H         1 ACP         0.1050
     45 HN61       -5.2294   -3.7965   -0.9914 H         1 ACP         0.4211
     46 HN62       -5.9774   -2.6837   -2.1055 H         1 ACP         0.4211
     47 H2         -3.6201    1.2414   -1.6336 H         1 ACP         0.0375
@<TRIPOS>BOND
     1    1    2 2
     2    1    3 1
     3    1    4 1
     4    1    8 1
     5    4   32 1
     6    5    6 2
     7    5    7 1
     8    5    8 1
     9    5   12 1
    10    7   33 1
    11    8   34 1
    12    8   35 1
    13    9   10 2
    14    9   11 1
    15    9   12 1
    16    9   13 1
    17   13   14 1
    18   14   15 1
    19   14   36 1
    20   14   37 1
    21   15   16 1
    22   15   17 1
    23   15   38 1
    24   16   21 1
    25   17   18 1
    26   17   19 1
    27   17   39 1
    28   18   40 1
    29   19   20 1
    30   19   21 1
    31   19   41 1
    32   20   42 1
    33   21   22 1
    34   21   43 1
    35   22   23 ar
    36   22   31 ar
    37   23   24 ar
    38   23   44 1
    39   24   25 ar
    40   25   26 ar
    41   25   31 ar
    42   26   27 1
    43   26   28 ar
    44   27   45 1
    45   27   46 1
    46   28   29 ar
    47   29   30 ar
    48   29   47 1
    49   30   31 ar
@<TRIPOS>SUBSTRUCTURE
     1 ACP         1 GROUP 0 A     ****
@<TRIPOS>MOLECULE
[[[5-(6-aminopurin-9-yl)-3,4-dihydroxy-tetrahydrofuran-2-yl]methoxy-oxido-phosphoryl]oxy-hydroxy-phosphoryl]methyl-hydroxy-phosphinate
   47    49     1     0     0
SMALL
USER_CHARGES

@<TRIPOS>ATOM
      1 PG         -2.1417    3.8542   -2.7522 P.3       1 ACP         1.3516
      2 O1G        -0.9547    4.7492   -2.4814 O.co2     1 ACP        -0.8379
      3 O2G        -2.5224    3.4197   -4.1487 O.co2     1 ACP        -0.8379
      4 O3G        -2.0674    2.5468   -1.7799 O.3       1 ACP        -0.7980
      5 PB         -3.5941    5.5018   -0.4006 P.3       1 ACP         1.7688
      6 O1B        -4.9043    6.0916    0.0280 O.2       1 ACP        -0.9167
      7 O2B        -2.3864    6.5656   -0.5480 O.3       1 ACP        -0.8201
      8 C3B        -3.6241    4.6634   -1.9993 C.3       1 ACP        -0.6097
      9 PA         -2.5403    4.4097    2.1396 P.3       1 ACP         1.5979
     10 O1A        -3.7850    4.5996    2.9788 O.co2     1 ACP        -0.8617
     11 O2A        -1.3558    5.3389    2.2922 O.co2     1 ACP        -0.8617
     12 O3A        -2.9826    4.3653    0.5693 O.3       1 ACP        -0.8283
     13 O5'        -2.0402    2.8619    2.3131 O.3       1 ACP        -0.5783
     14 C5'        -0.8811    2.4285    1.6206 C.3       1 ACP         0.1980
     15 C4'        -0.1994    1.3333    2.4288 C.3       1 ACP         0.0815
     16 O4'        -1.1285    0.2356    2.5840 O.3       1 ACP        -0.4127
     17 C3'         1.0324    0.7610    1.7344 C.3       1 ACP         0.0890
     18 O3'         1.9175    0.2377    2.7247 O.3       1 ACP        -0.6221
     19 C2'         0.4468   -0.3802    0.9263 C.3       1 ACP         0.1067
     20 O2'         1.3993   -1.3703    0.5961 O.3       1 ACP        -0.6053
     21 C1'        -0.6159   -0.9100    1.8769 C.3       1 ACP         0.4223
     22 N9         -1.7127   -1.6108    1.2130 N.pl3     1 ACP        -0.6834
     23 C8         -2.5476   -1.0844    0.2632 C.ar      1 ACP         0.5614
     24 N7         -3.4391   -1.9591   -0.1536 N.2       1 ACP        -0.5751
     25 C5         -3.1701   -3.1016    0.5574 C.ar      1 ACP        -0.2117
     26 C6         -3.7593   -4.3620    0.5656 C.ar      1 ACP         0.7177
     27 N6         -4.8512   -4.6493   -0.2712 N.pl3     1 ACP        -0.9401
     28 N1         -3.2659   -5.3144    1.3932 N.ar      1 ACP        -0.8008
     29 C2         -2.2122   -4.9785    2.1759 C.ar      1 ACP         0.6565
     30 N3         -1.5595   -3.7985    2.2572 N.ar      1 ACP        -0.7061
     31 C4         -2.0986   -2.9054    1.4140 C.ar      1 ACP         0.5715
     32 HOG3       -1.2869    1.9566   -1.8485 H         1 ACP         0.4226
     33 HOB2       -2.1127    7.0854    0.2375 H         1 ACP         0.4482
     34 H3B1       -3.9870    5.3815   -2.7432 H         1 ACP         0.1012
     35 H3B2       -4.3744    3.8687   -1.9287 H         1 ACP         0.1012
     36 H5'1       -1.1770    2.0503    0.6369 H         1 ACP         0.0481
     37 H5'2       -0.2082    3.2815    1.4877 H         1 ACP         0.0481
     38 H4'         0.0403    1.7078    3.4343 H         1 ACP         0.0904
     39 H3'         1.5906    1.4859    1.1353 H         1 ACP         0.0809
     40 HO3'        2.6839   -0.1150    2.2479 H         1 ACP         0.4528
     41 H2'        -0.0017    0.0018    0.0005 H         1 ACP         0.0594
     42 HO2'        0.9369   -2.0558    0.0825 H         1 ACP         0.4344
     43 H1'        -0.1998   -1.6319    2.6178 H         1 ACP         0.1127
     44 H8         -2.4576   -0.0639   -0.0831 H         1 ACP         0.1050
     45 HN61       -5.2312   -5.5768   -0.2846 H         1 ACP         0.4211
     46 HN62       -5.1770   -3.9517   -0.9131 H         1 ACP         0.4211
     47 H2         -1.8433   -5.7650    2.8259 H         1 ACP         0.0375
@<TRIPOS>BOND
     1    1    2 2
     2    1    3 1
     3    1    4 1
     4    1    8 1
     5    4   32 1
     6    5    6 2
     7    5    7 1
     8    5    8 1
     9    5   12 1
    10    7   33 1
    11    8   34 1
    12    8   35 1
    13    9   10 2
    14    9   11 1
    15    9   12 1
    16    9   13 1
    17   13   14 1
    18   14   15 1
    19   14   36 1
    20   14   37 1
    21   15   16 1
    22   15   17 1
    23   15   38 1
    24   16   21 1
    25   17   18 1
    26   17   19 1
    27   17   39 1
    28   18   40 1
    29   19   20 1
    30   19   21 1
    31   19   41 1
    32   20   42 1
    33   21   22 1
    34   21   43 1
    35   22   23 ar
    36   22   31 ar
    37   23   24 ar
    38   23   44 1
    39   24   25 ar
    40   25   26 ar
    41   25   31 ar
    42   26   27 1
    43   26   28 ar
    44   27   45 1
    45   27   46 1
    46   28   29 ar
    47   29   30 ar
    48   29   47 1
    49   30   31 ar
@<TRIPOS>SUBSTRUCTURE
     1 ACP         1 GROUP 0 A     ****
@<TRIPOS>MOLECULE
[[[5-(6-aminopurin-9-yl)-3,4-dihydroxy-tetrahydrofuran-2-yl]methoxy-oxido-phosphoryl]oxy-hydroxy-phosphoryl]methyl-hydroxy-phosphinate
   47    49     1     0     0
SMALL
USER_CHARGES

@<TRIPOS>ATOM
      1 PG          1.4587    5.8057   -0.9915 P.3       1 ACP         1.3516
      2 O1G         0.8891    5.8193   -2.3911 O.co2     1 ACP        -0.8379
      3 O2G         1.6748    4.5237   -0.2211 O.co2     1 ACP        -0.8379
      4 O3G         2.8242    6.6967   -0.9537 O.3       1 ACP        -0.7980
      5 PB         -1.3710    6.6225    0.3046 P.3       1 ACP         1.7688
      6 O1B        -2.2006    6.6283   -0.9444 O.2       1 ACP        -0.9167
      7 O2B        -1.7819    7.7396    1.3977 O.3       1 ACP        -0.8201
      8 C3B         0.3937    6.9042    0.0467 C.3       1 ACP        -0.6097
      9 PA         -2.5929    4.4189    1.8558 P.3       1 ACP         1.5979
     10 O1A        -3.4944    3.8755    0.7687 O.co2     1 ACP        -0.8617
     11 O2A        -3.1598    5.2480    2.9876 O.co2     1 ACP        -0.8617
     12 O3A        -1.3771    5.2459    1.1477 O.3       1 ACP        -0.8283
     13 O5'        -1.7337    3.1724    2.4753 O.3       1 ACP        -0.5783
     14 C5'        -0.8811    2.4285    1.6206 C.3       1 ACP         0.1980
     15 C4'        -0.1994    1.3333    2.4288 C.3       1 ACP         0.0815
     16 O4'        -1.1285    0.2356    2.5840 O.3       1 ACP        -0.4127
     17 C3'         1.0324    0.7610    1.7344 C.3       1 ACP         0.0890
     18 O3'         1.9175    0.2377    2.7247 O.3       1 ACP        -0.6221
     19 C2'         0.4468   -0.3802    0.9263 C.3       1 ACP         0.1067
     20 O2'         1.3993   -1.3703    0.5961 O.3       1 ACP        -0.6053
     21 C1'        -0.6159   -0.9100    1.8769 C.3       1 ACP         0.4223
     22 N9         -1.7127   -1.6108    1.2130 N.pl3     1 ACP        -0.6834
     23 C8         -2.8641   -1.0399    0.7392 C.ar      1 ACP         0.5614
     24 N7         -3.6659   -1.9257    0.1858 N.2       1 ACP        -0.5751
     25 C5         -3.0053   -3.1223    0.3069 C.ar      1 ACP        -0.2117
     26 C6         -3.3321   -4.4178   -0.0813 C.ar      1 ACP         0.7177
     27 N6         -4.5476   -4.6866   -0.7335 N.pl3     1 ACP        -0.9401
     28 N1         -2.4608   -5.4225    0.1773 N.ar      1 ACP        -0.8008
     29 C2         -1.3053   -5.1020    0.8081 C.ar      1 ACP         0.6565
     30 N3         -0.8788   -3.8921    1.2315 N.ar      1 ACP        -0.7061
     31 C4         -1.7870   -2.9477    0.9438 C.ar      1 ACP         0.5715
     32 HOG3        3.5714    6.4324   -1.5317 H         1 ACP         0.4226
     33 HOB2       -2.6885    7.7270    1.7720 H         1 ACP         0.4482
     34 H3B1        0.8704    6.9436    1.0326 H         1 ACP         0.1012
     35 H3B2        0.4961    7.8997   -0.3985 H         1 ACP         0.1012
     36 H5'1       -1.4802    1.9928    0.8147 H         1 ACP         0.0481
     37 H5'2       -0.1369    3.1042    1.1873 H         1 ACP         0.0481
     38 H4'         0.0403    1.7078    3.4343 H         1 ACP         0.0904
     39 H3'         1.5906    1.4859    1.1353 H         1 ACP         0.0809
     40 HO3'        2.6839   -0.1150    2.2479 H         1 ACP         0.4528
     41 H2'        -0.0017    0.0018    0.0005 H         1 ACP         0.0594
     42 HO2'        2.0953   -0.9375    0.0709 H         1 ACP         0.4344
     43 H1'        -0.1998   -1.6319    2.6178 H         1 ACP         0.1127
     44 H8         -3.0609    0.0200    0.8250 H         1 ACP         0.1050
     45 HN61       -5.2046   -3.9433   -0.8775 H         1 ACP         0.4211
     46 HN62       -4.7849   -5.6332   -0.9625 H         1 ACP         0.4211
     47 H2         -0.6318   -5.9307    0.9993 H         1 ACP         0.0375
@<TRIPOS>BOND
     1    1    2 2
     2    1    3 1
     3    1    4 1
     4    1    8 1
     5    4   32 1
     6    5    6 2
     7    5    7 1
     8    5    8 1
     9    5   12 1
    10    7   33 1
    11    8   34 1
    12    8   35 1
    13    9   10 2
    14    9   11 1
    15    9   12 1
    16    9   13 1
    17   13   14 1
    18   14   15 1
    19   14   36 1
    20   14   37 1
    21   15   16 1
    22   15   17 1
    23   15   38 1
    24   16   21 1
    25   17   18 1
    26   17   19 1
    27   17   39 1
    28   18   40 1
    29   19   20 1
    30   19   21 1
    31   19   41 1
    32   20   42 1
    33   21   22 1
    34   21   43 1
    35   22   23 ar
    36   22   31 ar
    37   23   24 ar
    38   23   44 1
    39   24   25 ar
    40   25   26 ar
    41   25   31 ar
    42   26   27 1
    43   26   28 ar
    44   27   45 1
    45   27   46 1
    46   28   29 ar
    47   29   30 ar
    48   29   47 1
    49   30   31 ar
@<TRIPOS>SUBSTRUCTURE
     1 ACP         1 GROUP 0 A     ****
@<TRIPOS>MOLECULE
[[[5-(6-aminopurin-9-yl)-3,4-dihydroxy-tetrahydrofuran-2-yl]methoxy-oxido-phosphoryl]oxy-hydroxy-phosphoryl]methyl-hydroxy-phosphinate
   47    49     1     0     0
SMALL
USER_CHARGES

@<TRIPOS>ATOM
      1 PG         -4.0435    6.9925    2.1958 P.3       1 ACP         1.3516
      2 O1G        -3.1429    6.1570    3.0757 O.co2     1 ACP        -0.8379
      3 O2G        -5.5074    7.2015    2.5073 O.co2     1 ACP        -0.8379
      4 O3G        -3.3384    8.4361    1.9147 O.3       1 ACP        -0.7980
      5 PB         -2.3927    6.2106   -0.4533 P.3       1 ACP         1.7688
      6 O1B        -1.7257    7.5298   -0.7039 O.2       1 ACP        -0.9167
      7 O2B        -2.8027    5.3931   -1.7857 O.3       1 ACP        -0.8201
      8 C3B        -3.9333    6.3032    0.4836 C.3       1 ACP        -0.6097
      9 PA         -0.0886    4.4447    0.1191 P.3       1 ACP         1.5979
     10 O1A         0.9772    5.5156    0.2036 O.co2     1 ACP        -0.8617
     11 O2A        -0.1967    3.5562   -1.1009 O.co2     1 ACP        -0.8617
     12 O3A        -1.5378    5.1403    0.4009 O.3       1 ACP        -0.8283
     13 O5'         0.0181    3.5132    1.4596 O.3       1 ACP        -0.5783
     14 C5'        -0.8811    2.4285    1.6206 C.3       1 ACP         0.1980
     15 C4'        -0.1994    1.3333    2.4288 C.3       1 ACP         0.0815
     16 O4'        -1.1285    0.2356    2.5840 O.3       1 ACP        -0.4127
     17 C3'         1.0324    0.7610    1.7344 C.3       1 ACP         0.0890
     18 O3'         1.9175    0.2377    2.7247 O.3       1 ACP        -0.6221
     19 C2'         0.4468   -0.3802    0.9263 C.3       1 ACP         0.1067
     20 O2'         1.3993   -1.3703    0.5961 O.3       1 ACP        -0.6053
     21 C1'        -0.6159   -0.9100    1.8769 C.3       1 ACP         0.4223
     22 N9         -1.7127   -1.6108    1.2130 N.pl3     1 ACP        -0.6834
     23 C8         -1.7712   -2.9546    0.9544 C.ar      1 ACP         0.5614
     24 N7         -2.8883   -3.2948    0.3462 N.2       1 ACP        -0.5751
     25 C5         -3.5834   -2.1202    0.2043 C.ar      1 ACP        -0.2117
     26 C6         -4.8225   -1.8251   -0.3554 C.ar      1 ACP         0.7177
     27 N6         -5.6154   -2.8395   -0.9189 N.pl3     1 ACP        -0.9401
     28 N1         -5.2589   -0.5425   -0.3507 N.ar      1 ACP        -0.8008
     29 C2         -4.4510    0.3913    0.2069 C.ar      1 ACP         0.6565
     30 N3         -3.2368    0.2296    0.7767 N.ar      1 ACP        -0.7061
     31 C4         -2.8684   -1.0596    0.7376 C.ar      1 ACP         0.5715
     32 HOG3       -3.1307    9.0124    2.6808 H         1 ACP         0.4226
     33 HOB2       -2.0999    5.1332   -2.4186 H         1 ACP         0.4482
     34 H3B1       -4.3494    5.2908    0.5379 H         1 ACP         0.1012
     35 H3B2       -4.6311    6.9049   -0.1086 H         1 ACP         0.1012
     36 H5'1       -1.7769    2.7851    2.1387 H         1 ACP         0.0481
     37 H5'2       -1.1653    2.0543    0.6320 H         1 ACP         0.0481
     38 H4'         0.0403    1.7078    3.4343 H         1 ACP         0.0904
     39 H3'         1.5906    1.4859    1.1353 H         1 ACP         0.0809
     40 HO3'        2.6839   -0.1150    2.2479 H         1 ACP         0.4528
     41 H2'        -0.0017    0.0018    0.0005 H         1 ACP         0.0594
     42 HO2'        2.0953   -0.9375    0.0709 H         1 ACP         0.4344
     43 H1'        -0.1998   -1.6319    2.6178 H         1 ACP         0.1127
     44 H8         -0.9745   -3.6312    1.2318 H         1 ACP         0.1050
     45 HN61       -5.2619   -3.7766   -0.9586 H         1 ACP         0.4211
     46 HN62       -6.4834   -2.5990   -1.3590 H         1 ACP         0.4211
     47 H2         -4.8317    1.4071    0.1930 H         1 ACP         0.0375
@<TRIPOS>BOND
     1    1    2 2
     2    1    3 1
     3    1    4 1
     4    1    8 1
     5    4   32 1
     6    5    6 2
     7    5    7 1
     8    5    8 1
     9    5   12 1
    10    7   33 1
    11    8   34 1
    12    8   35 1
    13    9   10 2
    14    9   11 1
    15    9   12 1
    16    9   13 1
    17   13   14 1
    18   14   15 1
    19   14   36 1
    20   14   37 1
    21   15   16 1
    22   15   17 1
    23   15   38 1
    24   16   21 1
    25   17   18 1
    26   17   19 1
    27   17   39 1
    28   18   40 1
    29   19   20 1
    30   19   21 1
    31   19   41 1
    32   20   42 1
    33   21   22 1
    34   21   43 1
    35   22   23 ar
    36   22   31 ar
    37   23   24 ar
    38   23   44 1
    39   24   25 ar
    40   25   26 ar
    41   25   31 ar
    42   26   27 1
    43   26   28 ar
    44   27   45 1
    45   27   46 1
    46   28   29 ar
    47   29   30 ar
    48   29   47 1
    49   30   31 ar
@<TRIPOS>SUBSTRUCTURE
     1 ACP         1 GROUP 0 A     ****
@<TRIPOS>MOLECULE
[[[5-(6-aminopurin-9-yl)-3,4-dihydroxy-tetrahydrofuran-2-yl]methoxy-oxido-phosphoryl]oxy-hydroxy-phosphoryl]methyl-hydroxy-phosphinate
   47    49     1     0     0
SMALL
USER_CHARGES

@<TRIPOS>ATOM
      1 PG         -2.2657    3.8337   -3.1593 P.3       1 ACP         1.3516
      2 O1G        -1.3958    2.8872   -2.3651 O.co2     1 ACP        -0.8379
      3 O2G        -1.6873    4.8484   -4.1182 O.co2     1 ACP        -0.8379
      4 O3G        -3.4413    2.9883   -3.9098 O.3       1 ACP        -0.7980
      5 PB         -2.6586    5.7915   -0.6360 P.3       1 ACP         1.7688
      6 O1B        -3.6893    6.4470    0.2335 O.2       1 ACP        -0.9167
      7 O2B        -1.6774    6.8133   -1.4139 O.3       1 ACP        -0.8201
      8 C3B        -3.3247    4.7511   -1.9527 C.3       1 ACP        -0.6097
      9 PA         -0.5788    5.0303    1.3262 P.3       1 ACP         1.5979
     10 O1A        -1.3579    5.3424    2.5853 O.co2     1 ACP        -0.8617
     11 O2A         0.5148    5.9582    0.8438 O.co2     1 ACP        -0.8617
     12 O3A        -1.6424    4.7853    0.1128 O.3       1 ACP        -0.8283
     13 O5'         0.0181    3.5132    1.4596 O.3       1 ACP        -0.5783
     14 C5'        -0.8811    2.4285    1.6206 C.3       1 ACP         0.1980
     15 C4'        -0.1994    1.3333    2.4288 C.3       1 ACP         0.0815
     16 O4'        -1.1285    0.2356    2.5840 O.3       1 ACP        -0.4127
     17 C3'         1.0324    0.7610    1.7344 C.3       1 ACP         0.0890
     18 O3'         1.9175    0.2377    2.7247 O.3       1 ACP        -0.6221
     19 C2'         0.4468   -0.3802    0.9263 C.3       1 ACP         0.1067
     20 O2'         1.3993   -1.3703    0.5961 O.3       1 ACP        -0.6053
     21 C1'        -0.6159   -0.9100    1.8769 C.3       1 ACP         0.4223
     22 N9         -1.7127   -1.6108    1.2130 N.pl3     1 ACP        -0.6834
     23 C8         -2.0877   -2.9101    1.4304 C.ar      1 ACP         0.5614
     24 N7         -3.1152   -3.2613    0.6857 N.2       1 ACP        -0.5751
     25 C5         -3.4186   -2.1409   -0.0462 C.ar      1 ACP        -0.2117
     26 C6         -4.3953   -1.8809   -1.0023 C.ar      1 ACP         0.7177
     27 N6         -5.3118   -2.8767   -1.3812 N.pl3     1 ACP        -0.9401
     28 N1         -4.4538   -0.6507   -1.5667 N.ar      1 ACP        -0.8008
     29 C2         -3.5442    0.2679   -1.1609 C.ar      1 ACP         0.6565
     30 N3         -2.5561    0.1361   -0.2491 N.ar      1 ACP        -0.7061
     31 C4         -2.5568   -1.1019    0.2674 C.ar      1 ACP         0.5715
     32 HOG3       -3.1809    2.2907   -4.5483 H         1 ACP         0.4226
     33 HOB2       -1.1209    7.4285   -0.8907 H         1 ACP         0.4482
     34 H3B1       -4.0013    5.3695   -2.5534 H         1 ACP         0.1012
     35 H3B2       -3.9371    3.9809   -1.4717 H         1 ACP         0.1012
     36 H5'1       -1.7769    2.7851    2.1387 H         1 ACP         0.0481
     37 H5'2       -1.1653    2.0543    0.6320 H         1 ACP         0.0481
     38 H4'         0.0403    1.7078    3.4343 H         1 ACP         0.0904
     39 H3'         1.5906    1.4859    1.1353 H         1 ACP         0.0809
     40 HO3'        2.6839   -0.1150    2.2479 H         1 ACP         0.4528
     41 H2'        -0.0017    0.0018    0.0005 H         1 ACP         0.0594
     42 HO2'        2.0953   -0.9375    0.0709 H         1 ACP         0.4344
     43 H1'        -0.1998   -1.6319    2.6178 H         1 ACP         0.1127
     44 H8         -1.5778   -3.5473    2.1399 H         1 ACP         0.1050
     45 HN61       -5.2294   -3.7965   -0.9914 H         1 ACP         0.4211
     46 HN62       -5.9774   -2.6837   -2.1055 H         1 ACP         0.4211
     47 H2         -3.6201    1.2414   -1.6336 H         1 ACP         0.0375
@<TRIPOS>BOND
     1    1    2 2
     2    1    3 1
     3    1    4 1
     4    1    8 1
     5    4   32 1
     6    5    6 2
     7    5    7 1
     8    5    8 1
     9    5   12 1
    10    7   33 1
    11    8   34 1
    12    8   35 1
    13    9   10 2
    14    9   11 1
    15    9   12 1
    16    9   13 1
    17   13   14 1
    18   14   15 1
    19   14   36 1
    20   14   37 1
    21   15   16 1
    22   15   17 1
    23   15   38 1
    24   16   21 1
    25   17   18 1
    26   17   19 1
    27   17   39 1
    28   18   40 1
    29   19   20 1
    30   19   21 1
    31   19   41 1
    32   20   42 1
    33   21   22 1
    34   21   43 1
    35   22   23 ar
    36   22   31 ar
    37   23   24 ar
    38   23   44 1
    39   24   25 ar
    40   25   26 ar
    41   25   31 ar
    42   26   27 1
    43   26   28 ar
    44   27   45 1
    45   27   46 1
    46   28   29 ar
    47   29   30 ar
    48   29   47 1
    49   30   31 ar
@<TRIPOS>SUBSTRUCTURE
     1 ACP         1 GROUP 0 A     ****
@<TRIPOS>MOLECULE
[[[5-(6-aminopurin-9-yl)-3,4-dihydroxy-tetrahydrofuran-2-yl]methoxy-oxido-phosphoryl]oxy-hydroxy-phosphoryl]methyl-hydroxy-phosphinate
   47    49     1     0     0
SMALL
USER_CHARGES

@<TRIPOS>ATOM
      1 PG         -0.6569    7.4416    0.3728 P.3       1 ACP         1.3516
      2 O1G        -1.5900    8.4177    1.0510 O.co2     1 ACP        -0.8379
      3 O2G         0.6474    7.8759   -0.2549 O.co2     1 ACP        -0.8379
      4 O3G        -0.3856    6.1743    1.3629 O.3       1 ACP        -0.7980
      5 PB         -3.0972    5.5678   -0.5693 P.3       1 ACP         1.7688
      6 O1B        -3.7416    4.9376   -1.7676 O.2       1 ACP        -0.9167
      7 O2B        -4.0489    6.5745    0.2627 O.3       1 ACP        -0.8201
      8 C3B        -1.6325    6.5608   -0.9277 C.3       1 ACP        -0.6097
      9 PA         -3.3165    3.4234    1.4577 P.3       1 ACP         1.5979
     10 O1A        -3.7911    2.3182    0.5394 O.co2     1 ACP        -0.8617
     11 O2A        -4.2808    4.1177    2.3945 O.co2     1 ACP        -0.8617
     12 O3A        -2.5502    4.5464    0.5547 O.3       1 ACP        -0.8283
     13 O5'        -2.0402    2.8619    2.3131 O.3       1 ACP        -0.5783
     14 C5'        -0.8811    2.4285    1.6206 C.3       1 ACP         0.1980
     15 C4'        -0.1994    1.3333    2.4288 C.3       1 ACP         0.0815
     16 O4'        -1.1285    0.2356    2.5840 O.3       1 ACP        -0.4127
     17 C3'         1.0324    0.7610    1.7344 C.3       1 ACP         0.0890
     18 O3'         1.9175    0.2377    2.7247 O.3       1 ACP        -0.6221
     19 C2'         0.4468   -0.3802    0.9263 C.3       1 ACP         0.1067
     20 O2'         1.3993   -1.3703    0.5961 O.3       1 ACP        -0.6053
     21 C1'        -0.6159   -0.9100    1.8769 C.3       1 ACP         0.4223
     22 N9         -1.7127   -1.6108    1.2130 N.pl3     1 ACP        -0.6834
     23 C8         -2.5476   -1.0844    0.2632 C.ar      1 ACP         0.5614
     24 N7         -3.4391   -1.9591   -0.1536 N.2       1 ACP        -0.5751
     25 C5         -3.1701   -3.1016    0.5574 C.ar      1 ACP        -0.2117
     26 C6         -3.7593   -4.3620    0.5656 C.ar      1 ACP         0.7177
     27 N6         -4.8512   -4.6493   -0.2712 N.pl3     1 ACP        -0.9401
     28 N1         -3.2659   -5.3144    1.3932 N.ar      1 ACP        -0.8008
     29 C2         -2.2122   -4.9785    2.1759 C.ar      1 ACP         0.6565
     30 N3         -1.5595   -3.7985    2.2572 N.ar      1 ACP        -0.7061
     31 C4         -2.0986   -2.9054    1.4140 C.ar      1 ACP         0.5715
     32 HOG3        0.0218    6.3440    2.2390 H         1 ACP         0.4226
     33 HOB2       -4.8794    6.2288    0.6537 H         1 ACP         0.4482
     34 H3B1       -1.9209    7.3247   -1.6586 H         1 ACP         0.1012
     35 H3B2       -0.9124    5.9002   -1.4221 H         1 ACP         0.1012
     36 H5'1       -1.1770    2.0503    0.6369 H         1 ACP         0.0481
     37 H5'2       -0.2082    3.2815    1.4877 H         1 ACP         0.0481
     38 H4'         0.0403    1.7078    3.4343 H         1 ACP         0.0904
     39 H3'         1.5906    1.4859    1.1353 H         1 ACP         0.0809
     40 HO3'        2.6839   -0.1150    2.2479 H         1 ACP         0.4528
     41 H2'        -0.0017    0.0018    0.0005 H         1 ACP         0.0594
     42 HO2'        2.0953   -0.9375    0.0709 H         1 ACP         0.4344
     43 H1'        -0.1998   -1.6319    2.6178 H         1 ACP         0.1127
     44 H8         -2.4576   -0.0639   -0.0831 H         1 ACP         0.1050
     45 HN61       -5.2371   -3.9234   -0.8448 H         1 ACP         0.4211
     46 HN62       -5.2909   -5.5485   -0.2160 H         1 ACP         0.4211
     47 H2         -1.8433   -5.7650    2.8259 H         1 ACP         0.0375
@<TRIPOS>BOND
     1    1    2 2
     2    1    3 1
     3    1    4 1
     4    1    8 1
     5    4   32 1
     6    5    6 2
     7    5    7 1
     8    5    8 1
     9    5   12 1
    10    7   33 1
    11    8   34 1
    12    8   35 1
    13    9   10 2
    14    9   11 1
    15    9   12 1
    16    9   13 1
    17   13   14 1
    18   14   15 1
    19   14   36 1
    20   14   37 1
    21   15   16 1
    22   15   17 1
    23   15   38 1
    24   16   21 1
    25   17   18 1
    26   17   19 1
    27   17   39 1
    28   18   40 1
    29   19   20 1
    30   19   21 1
    31   19   41 1
    32   20   42 1
    33   21   22 1
    34   21   43 1
    35   22   23 ar
    36   22   31 ar
    37   23   24 ar
    38   23   44 1
    39   24   25 ar
    40   25   26 ar
    41   25   31 ar
    42   26   27 1
    43   26   28 ar
    44   27   45 1
    45   27   46 1
    46   28   29 ar
    47   29   30 ar
    48   29   47 1
    49   30   31 ar
@<TRIPOS>SUBSTRUCTURE
     1 ACP         1 GROUP 0 A     ****
@<TRIPOS>MOLECULE
[[[5-(6-aminopurin-9-yl)-3,4-dihydroxy-tetrahydrofuran-2-yl]methoxy-oxido-phosphoryl]oxy-hydroxy-phosphoryl]methyl-hydroxy-phosphinate
   47    49     1     0     0
SMALL
USER_CHARGES

@<TRIPOS>ATOM
      1 PG         -4.0456    7.3137   -0.5929 P.3       1 ACP         1.3516
      2 O1G        -3.5735    6.3438   -1.6511 O.co2     1 ACP        -0.8379
      3 O2G        -3.5550    8.7417   -0.5309 O.co2     1 ACP        -0.8379
      4 O3G        -5.6754    7.2981   -0.5321 O.3       1 ACP        -0.7980
      5 PB         -2.0575    6.0726    1.6119 P.3       1 ACP         1.7688
      6 O1B        -2.0037    5.4592    2.9790 O.2       1 ACP        -0.9167
      7 O2B        -1.1973    7.4302    1.4426 O.3       1 ACP        -0.8201
      8 C3B        -3.7093    6.5395    1.0523 C.3       1 ACP        -0.6097
      9 PA         -0.0886    4.4447    0.1191 P.3       1 ACP         1.5979
     10 O1A         0.9772    5.5156    0.2036 O.co2     1 ACP        -0.8617
     11 O2A        -0.1967    3.5562   -1.1009 O.co2     1 ACP        -0.8617
     12 O3A        -1.5378    5.1403    0.4009 O.3       1 ACP        -0.8283
     13 O5'         0.0181    3.5132    1.4596 O.3       1 ACP        -0.5783
     14 C5'        -0.8811    2.4285    1.6206 C.3       1 ACP         0.1980
     15 C4'        -0.1994    1.3333    2.4288 C.3       1 ACP         0.0815
     16 O4'        -1.1285    0.2356    2.5840 O.3       1 ACP        -0.4127
     17 C3'         1.0324    0.7610    1.7344 C.3       1 ACP         0.0890
     18 O3'         1.9175    0.2377    2.7247 O.3       1 ACP        -0.6221
     19 C2'         0.4468   -0.3802    0.9263 C.3       1 ACP         0.1067
     20 O2'         1.3993   -1.3703    0.5961 O.3       1 ACP        -0.6053
     21 C1'        -0.6159   -0.9100    1.8769 C.3       1 ACP         0.4223
     22 N9         -1.7127   -1.6108    1.2130 N.pl3     1 ACP        -0.6834
     23 C8         -2.8641   -1.0399    0.7392 C.ar      1 ACP         0.5614
     24 N7         -3.6659   -1.9257    0.1858 N.2       1 ACP        -0.5751
     25 C5         -3.0053   -3.1223    0.3069 C.ar      1 ACP        -0.2117
     26 C6         -3.3321   -4.4178   -0.0813 C.ar      1 ACP         0.7177
     27 N6         -4.5476   -4.6866   -0.7335 N.pl3     1 ACP        -0.9401
     28 N1         -2.4608   -5.4225    0.1773 N.ar      1 ACP        -0.8008
     29 C2         -1.3053   -5.1020    0.8081 C.ar      1 ACP         0.6565
     30 N3         -0.8788   -3.8921    1.2315 N.ar      1 ACP        -0.7061
     31 C4         -1.7870   -2.9477    0.9438 C.ar      1 ACP         0.5715
     32 HOG3       -6.1760    7.5436   -1.3392 H         1 ACP         0.4226
     33 HOB2       -0.2295    7.4022    1.6001 H         1 ACP         0.4482
     34 H3B1       -4.1319    7.2211    1.7992 H         1 ACP         0.1012
     35 H3B2       -4.3198    5.6303    1.0667 H         1 ACP         0.1012
     36 H5'1       -1.7769    2.7851    2.1387 H         1 ACP         0.0481
     37 H5'2       -1.1653    2.0543    0.6320 H         1 ACP         0.0481
     38 H4'         0.0403    1.7078    3.4343 H         1 ACP         0.0904
     39 H3'         1.5906    1.4859    1.1353 H         1 ACP         0.0809
     40 HO3'        2.6839   -0.1150    2.2479 H         1 ACP         0.4528
     41 H2'        -0.0017    0.0018    0.0005 H         1 ACP         0.0594
     42 HO2'        2.0953   -0.9375    0.0709 H         1 ACP         0.4344
     43 H1'        -0.1998   -1.6319    2.6178 H         1 ACP         0.1127
     44 H8         -3.0609    0.0200    0.8250 H         1 ACP         0.1050
     45 HN61       -5.2046   -3.9433   -0.8775 H         1 ACP         0.4211
     46 HN62       -4.7849   -5.6332   -0.9625 H         1 ACP         0.4211
     47 H2         -0.6318   -5.9307    0.9993 H         1 ACP         0.0375
@<TRIPOS>BOND
     1    1    2 2
     2    1    3 1
     3    1    4 1
     4    1    8 1
     5    4   32 1
     6    5    6 2
     7    5    7 1
     8    5    8 1
     9    5   12 1
    10    7   33 1
    11    8   34 1
    12    8   35 1
    13    9   10 2
    14    9   11 1
    15    9   12 1
    16    9   13 1
    17   13   14 1
    18   14   15 1
    19   14   36 1
    20   14   37 1
    21   15   16 1
    22   15   17 1
    23   15   38 1
    24   16   21 1
    25   17   18 1
    26   17   19 1
    27   17   39 1
    28   18   40 1
    29   19   20 1
    30   19   21 1
    31   19   41 1
    32   20   42 1
    33   21   22 1
    34   21   43 1
    35   22   23 ar
    36   22   31 ar
    37   23   24 ar
    38   23   44 1
    39   24   25 ar
    40   25   26 ar
    41   25   31 ar
    42   26   27 1
    43   26   28 ar
    44   27   45 1
    45   27   46 1
    46   28   29 ar
    47   29   30 ar
    48   29   47 1
    49   30   31 ar
@<TRIPOS>SUBSTRUCTURE
     1 ACP         1 GROUP 0 A     ****
@<TRIPOS>MOLECULE
[[[5-(6-aminopurin-9-yl)-3,4-dihydroxy-tetrahydrofuran-2-yl]methoxy-oxido-phosphoryl]oxy-hydroxy-phosphoryl]methyl-hydroxy-phosphinate
   47    49     1     0     0
SMALL
USER_CHARGES

@<TRIPOS>ATOM
      1 PG          0.6467    7.2555    2.6715 P.3       1 ACP         1.3516
      2 O1G         0.7123    5.8209    3.1416 O.co2     1 ACP        -0.8379
      3 O2G         0.0233    8.3502    3.5063 O.co2     1 ACP        -0.8379
      4 O3G         2.1252    7.7304    2.1730 O.3       1 ACP        -0.7980
      5 PB         -1.8855    6.6530    0.7797 P.3       1 ACP         1.7688
      6 O1B        -2.3868    6.7440   -0.6304 O.2       1 ACP        -0.9167
      7 O2B        -2.7544    7.4783    1.8639 O.3       1 ACP        -0.8201
      8 C3B        -0.2028    7.2580    1.0292 C.3       1 ACP        -0.6097
      9 PA         -2.9650    4.0420    1.6588 P.3       1 ACP         1.5979
     10 O1A        -3.4619    3.5597    0.3133 O.co2     1 ACP        -0.8617
     11 O2A        -3.9334    4.5556    2.7019 O.co2     1 ACP        -0.8617
     12 O3A        -1.8099    5.1668    1.4056 O.3       1 ACP        -0.8283
     13 O5'        -2.0402    2.8619    2.3131 O.3       1 ACP        -0.5783
     14 C5'        -0.8811    2.4285    1.6206 C.3       1 ACP         0.1980
     15 C4'        -0.1994    1.3333    2.4288 C.3       1 ACP         0.0815
     16 O4'        -1.1285    0.2356    2.5840 O.3       1 ACP        -0.4127
     17 C3'         1.0324    0.7610    1.7344 C.3       1 ACP         0.0890
     18 O3'         1.9175    0.2377    2.7247 O.3       1 ACP        -0.6221
     19 C2'         0.4468   -0.3802    0.9263 C.3       1 ACP         0.1067
     20 O2'         1.3993   -1.3703    0.5961 O.3       1 ACP        -0.6053
     21 C1'        -0.6159   -0.9100    1.8769 C.3       1 ACP         0.4223
     22 N9         -1.7127   -1.6108    1.2130 N.pl3     1 ACP        -0.6834
     23 C8         -2.0877   -2.9101    1.4304 C.ar      1 ACP         0.5614
     24 N7         -3.1152   -3.2613    0.6857 N.2       1 ACP        -0.5751
     25 C5         -3.4186   -2.1409   -0.0462 C.ar      1 ACP        -0.2117
     26 C6         -4.3953   -1.8809   -1.0023 C.ar      1 ACP         0.7177
     27 N6         -5.3118   -2.8767   -1.3812 N.pl3     1 ACP        -0.9401
     28 N1         -4.4538   -0.6507   -1.5667 N.ar      1 ACP        -0.8008
     29 C2         -3.5442    0.2679   -1.1609 C.ar      1 ACP         0.6565
     30 N3         -2.5561    0.1361   -0.2491 N.ar      1 ACP        -0.7061
     31 C4         -2.5568   -1.1019    0.2674 C.ar      1 ACP         0.5715
     32 HOG3        2.8648    7.7106    2.8171 H         1 ACP         0.4226
     33 HOB2       -3.7015    7.2531    1.9842 H         1 ACP         0.4482
     34 H3B1       -0.1666    8.2933    0.6716 H         1 ACP         0.1012
     35 H3B2        0.4482    6.6699    0.3735 H         1 ACP         0.1012
     36 H5'1       -1.1770    2.0503    0.6369 H         1 ACP         0.0481
     37 H5'2       -0.2082    3.2815    1.4877 H         1 ACP         0.0481
     38 H4'         0.0403    1.7078    3.4343 H         1 ACP         0.0904
     39 H3'         1.5906    1.4859    1.1353 H         1 ACP         0.0809
     40 HO3'        2.6839   -0.1150    2.2479 H         1 ACP         0.4528
     41 H2'        -0.0017    0.0018    0.0005 H         1 ACP         0.0594
     42 HO2'        2.0953   -0.9375    0.0709 H         1 ACP         0.4344
     43 H1'        -0.1998   -1.6319    2.6178 H         1 ACP         0.1127
     44 H8         -1.5778   -3.5473    2.1399 H         1 ACP         0.1050
     45 HN61       -5.2294   -3.7965   -0.9914 H         1 ACP         0.4211
     46 HN62       -5.9774   -2.6837   -2.1055 H         1 ACP         0.4211
     47 H2         -3.6201    1.2414   -1.6336 H         1 ACP         0.0375
@<TRIPOS>BOND
     1    1    2 2
     2    1    3 1
     3    1    4 1
     4    1    8 1
     5    4   32 1
     6    5    6 2
     7    5    7 1
     8    5    8 1
     9    5   12 1
    10    7   33 1
    11    8   34 1
    12    8   35 1
    13    9   10 2
    14    9   11 1
    15    9   12 1
    16    9   13 1
    17   13   14 1
    18   14   15 1
    19   14   36 1
    20   14   37 1
    21   15   16 1
    22   15   17 1
    23   15   38 1
    24   16   21 1
    25   17   18 1
    26   17   19 1
    27   17   39 1
    28   18   40 1
    29   19   20 1
    30   19   21 1
    31   19   41 1
    32   20   42 1
    33   21   22 1
    34   21   43 1
    35   22   23 ar
    36   22   31 ar
    37   23   24 ar
    38   23   44 1
    39   24   25 ar
    40   25   26 ar
    41   25   31 ar
    42   26   27 1
    43   26   28 ar
    44   27   45 1
    45   27   46 1
    46   28   29 ar
    47   29   30 ar
    48   29   47 1
    49   30   31 ar
@<TRIPOS>SUBSTRUCTURE
     1 ACP         1 GROUP 0 A     ****
@<TRIPOS>MOLECULE
[[[5-(6-aminopurin-9-yl)-3,4-dihydroxy-tetrahydrofuran-2-yl]methoxy-oxido-phosphoryl]oxy-hydroxy-phosphoryl]methyl-hydroxy-phosphinate
   47    49     1     0     0
SMALL
USER_CHARGES

@<TRIPOS>ATOM
      1 PG         -4.5270    6.0581   -1.8882 P.3       1 ACP         1.3516
      2 O1G        -3.1696    6.6468   -1.5812 O.co2     1 ACP        -0.8379
      3 O2G        -5.8100    6.6936   -1.4044 O.co2     1 ACP        -0.8379
      4 O3G        -4.6396    5.7614   -3.4880 O.3       1 ACP        -0.7980
      5 PB         -4.2332    3.8468    0.4309 P.3       1 ACP         1.7688
      6 O1B        -4.2643    2.3728    0.7033 O.2       1 ACP        -0.9167
      7 O2B        -5.3305    4.7109    1.2438 O.3       1 ACP        -0.8201
      8 C3B        -4.5154    4.3079   -1.2918 C.3       1 ACP        -0.6097
      9 PA         -2.0038    4.7531    2.1525 P.3       1 ACP         1.5979
     10 O1A        -2.9393    5.2969    3.2104 O.co2     1 ACP        -0.8617
     11 O2A        -0.6860    5.4370    1.8604 O.co2     1 ACP        -0.8617
     12 O3A        -2.8410    4.5946    0.7605 O.3       1 ACP        -0.8283
     13 O5'        -1.7337    3.1724    2.4753 O.3       1 ACP        -0.5783
     14 C5'        -0.8811    2.4285    1.6206 C.3       1 ACP         0.1980
     15 C4'        -0.1994    1.3333    2.4288 C.3       1 ACP         0.0815
     16 O4'        -1.1285    0.2356    2.5840 O.3       1 ACP        -0.4127
     17 C3'         1.0324    0.7610    1.7344 C.3       1 ACP         0.0890
     18 O3'         1.9175    0.2377    2.7247 O.3       1 ACP        -0.6221
     19 C2'         0.4468   -0.3802    0.9263 C.3       1 ACP         0.1067
     20 O2'         1.3993   -1.3703    0.5961 O.3       1 ACP        -0.6053
     21 C1'        -0.6159   -0.9100    1.8769 C.3       1 ACP         0.4223
     22 N9         -1.7127   -1.6108    1.2130 N.pl3     1 ACP        -0.6834
     23 C8         -2.8641   -1.0399    0.7392 C.ar      1 ACP         0.5614
     24 N7         -3.6659   -1.9257    0.1858 N.2       1 ACP        -0.5751
     25 C5         -3.0053   -3.1223    0.3069 C.ar      1 ACP        -0.2117
     26 C6         -3.3321   -4.4178   -0.0813 C.ar      1 ACP         0.7177
     27 N6         -4.5476   -4.6866   -0.7335 N.pl3     1 ACP        -0.9401
     28 N1         -2.4608   -5.4225    0.1773 N.ar      1 ACP        -0.8008
     29 C2         -1.3053   -5.1020    0.8081 C.ar      1 ACP         0.6565
     30 N3         -0.8788   -3.8921    1.2315 N.ar      1 ACP        -0.7061
     31 C4         -1.7870   -2.9477    0.9438 C.ar      1 ACP         0.5715
     32 HOG3       -4.5451    6.5132   -4.1110 H         1 ACP         0.4226
     33 HOB2       -5.3132    4.6988    2.2244 H         1 ACP         0.4482
     34 H3B1       -5.4763    3.8782   -1.5967 H         1 ACP         0.1012
     35 H3B2       -3.7401    3.8123   -1.8858 H         1 ACP         0.1012
     36 H5'1       -1.4802    1.9928    0.8147 H         1 ACP         0.0481
     37 H5'2       -0.1369    3.1042    1.1873 H         1 ACP         0.0481
     38 H4'         0.0403    1.7078    3.4343 H         1 ACP         0.0904
     39 H3'         1.5906    1.4859    1.1353 H         1 ACP         0.0809
     40 HO3'        2.6839   -0.1150    2.2479 H         1 ACP         0.4528
     41 H2'        -0.0017    0.0018    0.0005 H         1 ACP         0.0594
     42 HO2'        2.0953   -0.9375    0.0709 H         1 ACP         0.4344
     43 H1'        -0.1998   -1.6319    2.6178 H         1 ACP         0.1127
     44 H8         -3.0609    0.0200    0.8250 H         1 ACP         0.1050
     45 HN61       -5.2046   -3.9433   -0.8775 H         1 ACP         0.4211
     46 HN62       -4.7849   -5.6332   -0.9625 H         1 ACP         0.4211
     47 H2         -0.6318   -5.9307    0.9993 H         1 ACP         0.0375
@<TRIPOS>BOND
     1    1    2 2
     2    1    3 1
     3    1    4 1
     4    1    8 1
     5    4   32 1
     6    5    6 2
     7    5    7 1
     8    5    8 1
     9    5   12 1
    10    7   33 1
    11    8   34 1
    12    8   35 1
    13    9   10 2
    14    9   11 1
    15    9   12 1
    16    9   13 1
    17   13   14 1
    18   14   15 1
    19   14   36 1
    20   14   37 1
    21   15   16 1
    22   15   17 1
    23   15   38 1
    24   16   21 1
    25   17   18 1
    26   17   19 1
    27   17   39 1
    28   18   40 1
    29   19   20 1
    30   19   21 1
    31   19   41 1
    32   20   42 1
    33   21   22 1
    34   21   43 1
    35   22   23 ar
    36   22   31 ar
    37   23   24 ar
    38   23   44 1
    39   24   25 ar
    40   25   26 ar
    41   25   31 ar
    42   26   27 1
    43   26   28 ar
    44   27   45 1
    45   27   46 1
    46   28   29 ar
    47   29   30 ar
    48   29   47 1
    49   30   31 ar
@<TRIPOS>SUBSTRUCTURE
     1 ACP         1 GROUP 0 A     ****
@<TRIPOS>MOLECULE
[[[5-(6-aminopurin-9-yl)-3,4-dihydroxy-tetrahydrofuran-2-yl]methoxy-oxido-phosphoryl]oxy-hydroxy-phosphoryl]methyl-hydroxy-phosphinate
   47    49     1     0     0
SMALL
USER_CHARGES

@<TRIPOS>ATOM
      1 PG         -3.3215    4.5718    5.6521 P.3       1 ACP         1.3516
      2 O1G        -4.0006    4.4128    4.3116 O.co2     1 ACP        -0.8379
      3 O2G        -4.0439    5.1161    6.8627 O.co2     1 ACP        -0.8379
      4 O3G        -2.5735    3.1780    6.0492 O.3       1 ACP        -0.7980
      5 PB         -0.4691    5.1522    4.2806 P.3       1 ACP         1.7688
      6 O1B         0.2159    3.8637    4.6252 O.2       1 ACP        -0.9167
      7 O2B         0.4906    6.4525    4.2805 O.3       1 ACP        -0.8201
      8 C3B        -1.8185    5.6157    5.3870 C.3       1 ACP        -0.6097
      9 PA         -0.5788    5.0303    1.3262 P.3       1 ACP         1.5979
     10 O1A         0.5862    5.9826    1.1662 O.co2     1 ACP        -0.8617
     11 O2A        -1.7218    5.0335    0.3346 O.co2     1 ACP        -0.8617
     12 O3A        -1.1812    5.2058    2.8328 O.3       1 ACP        -0.8283
     13 O5'         0.0181    3.5132    1.4596 O.3       1 ACP        -0.5783
     14 C5'        -0.8811    2.4285    1.6206 C.3       1 ACP         0.1980
     15 C4'        -0.1994    1.3333    2.4288 C.3       1 ACP         0.0815
     16 O4'        -1.1285    0.2356    2.5840 O.3       1 ACP        -0.4127
     17 C3'         1.0324    0.7610    1.7344 C.3       1 ACP         0.0890
     18 O3'         1.9175    0.2377    2.7247 O.3       1 ACP        -0.6221
     19 C2'         0.4468   -0.3802    0.9263 C.3       1 ACP         0.1067
     20 O2'         1.3993   -1.3703    0.5961 O.3       1 ACP        -0.6053
     21 C1'        -0.6159   -0.9100    1.8769 C.3       1 ACP         0.4223
     22 N9         -1.7127   -1.6108    1.2130 N.pl3     1 ACP        -0.6834
     23 C8         -2.8641   -1.0399    0.7392 C.ar      1 ACP         0.5614
     24 N7         -3.6659   -1.9257    0.1858 N.2       1 ACP        -0.5751
     25 C5         -3.0053   -3.1223    0.3069 C.ar      1 ACP        -0.2117
     26 C6         -3.3321   -4.4178   -0.0813 C.ar      1 ACP         0.7177
     27 N6         -4.5476   -4.6866   -0.7335 N.pl3     1 ACP        -0.9401
     28 N1         -2.4608   -5.4225    0.1773 N.ar      1 ACP        -0.8008
     29 C2         -1.3053   -5.1020    0.8081 C.ar      1 ACP         0.6565
     30 N3         -0.8788   -3.8921    1.2315 N.ar      1 ACP        -0.7061
     31 C4         -1.7870   -2.9477    0.9438 C.ar      1 ACP         0.5715
     32 HOG3       -3.1153    2.3649    6.1369 H         1 ACP         0.4226
     33 HOB2        1.2581    6.4764    3.6702 H         1 ACP         0.4482
     34 H3B1       -2.1850    6.5983    5.0689 H         1 ACP         0.1012
     35 H3B2       -1.3838    5.7435    6.3841 H         1 ACP         0.1012
     36 H5'1       -1.7769    2.7851    2.1387 H         1 ACP         0.0481
     37 H5'2       -1.1653    2.0543    0.6320 H         1 ACP         0.0481
     38 H4'         0.0403    1.7078    3.4343 H         1 ACP         0.0904
     39 H3'         1.5906    1.4859    1.1353 H         1 ACP         0.0809
     40 HO3'        2.6839   -0.1150    2.2479 H         1 ACP         0.4528
     41 H2'        -0.0017    0.0018    0.0005 H         1 ACP         0.0594
     42 HO2'        0.9369   -2.0558    0.0825 H         1 ACP         0.4344
     43 H1'        -0.1998   -1.6319    2.6178 H         1 ACP         0.1127
     44 H8         -3.0609    0.0200    0.8250 H         1 ACP         0.1050
     45 HN61       -5.2046   -3.9433   -0.8775 H         1 ACP         0.4211
     46 HN62       -4.7849   -5.6332   -0.9625 H         1 ACP         0.4211
     47 H2         -0.6318   -5.9307    0.9993 H         1 ACP         0.0375
@<TRIPOS>BOND
     1    1    2 2
     2    1    3 1
     3    1    4 1
     4    1    8 1
     5    4   32 1
     6    5    6 2
     7    5    7 1
     8    5    8 1
     9    5   12 1
    10    7   33 1
    11    8   34 1
    12    8   35 1
    13    9   10 2
    14    9   11 1
    15    9   12 1
    16    9   13 1
    17   13   14 1
    18   14   15 1
    19   14   36 1
    20   14   37 1
    21   15   16 1
    22   15   17 1
    23   15   38 1
    24   16   21 1
    25   17   18 1
    26   17   19 1
    27   17   39 1
    28   18   40 1
    29   19   20 1
    30   19   21 1
    31   19   41 1
    32   20   42 1
    33   21   22 1
    34   21   43 1
    35   22   23 ar
    36   22   31 ar
    37   23   24 ar
    38   23   44 1
    39   24   25 ar
    40   25   26 ar
    41   25   31 ar
    42   26   27 1
    43   26   28 ar
    44   27   45 1
    45   27   46 1
    46   28   29 ar
    47   29   30 ar
    48   29   47 1
    49   30   31 ar
@<TRIPOS>SUBSTRUCTURE
     1 ACP         1 GROUP 0 A     ****
@<TRIPOS>MOLECULE
[[[5-(6-aminopurin-9-yl)-3,4-dihydroxy-tetrahydrofuran-2-yl]methoxy-oxido-phosphoryl]oxy-hydroxy-phosphoryl]methyl-hydroxy-phosphinate
   47    49     1     0     0
SMALL
USER_CHARGES

@<TRIPOS>ATOM
      1 PG         -4.3948    3.2757   -1.6411 P.3       1 ACP         1.3516
      2 O1G        -5.6276    3.7599   -0.9137 O.co2     1 ACP        -0.8379
      3 O2G        -3.5099    2.1821   -1.0891 O.co2     1 ACP        -0.8379
      4 O3G        -4.7789    2.9319   -3.1885 O.3       1 ACP        -0.7980
      5 PB         -2.6586    5.7915   -0.6360 P.3       1 ACP         1.7688
      6 O1B        -3.6893    6.4470    0.2335 O.2       1 ACP        -0.9167
      7 O2B        -1.6774    6.8133   -1.4139 O.3       1 ACP        -0.8201
      8 C3B        -3.3247    4.7511   -1.9527 C.3       1 ACP        -0.6097
      9 PA         -0.5788    5.0303    1.3262 P.3       1 ACP         1.5979
     10 O1A        -1.3579    5.3424    2.5853 O.co2     1 ACP        -0.8617
     11 O2A         0.5148    5.9582    0.8438 O.co2     1 ACP        -0.8617
     12 O3A        -1.6424    4.7853    0.1128 O.3       1 ACP        -0.8283
     13 O5'         0.0181    3.5132    1.4596 O.3       1 ACP        -0.5783
     14 C5'        -0.8811    2.4285    1.6206 C.3       1 ACP         0.1980
     15 C4'        -0.1994    1.3333    2.4288 C.3       1 ACP         0.0815
     16 O4'        -1.1285    0.2356    2.5840 O.3       1 ACP        -0.4127
     17 C3'         1.0324    0.7610    1.7344 C.3       1 ACP         0.0890
     18 O3'         1.9175    0.2377    2.7247 O.3       1 ACP        -0.6221
     19 C2'         0.4468   -0.3802    0.9263 C.3       1 ACP         0.1067
     20 O2'         1.3993   -1.3703    0.5961 O.3       1 ACP        -0.6053
     21 C1'        -0.6159   -0.9100    1.8769 C.3       1 ACP         0.4223
     22 N9         -1.7127   -1.6108    1.2130 N.pl3     1 ACP        -0.6834
     23 C8         -2.8641   -1.0399    0.7392 C.ar      1 ACP         0.5614
     24 N7         -3.6659   -1.9257    0.1858 N.2       1 ACP        -0.5751
     25 C5         -3.0053   -3.1223    0.3069 C.ar      1 ACP        -0.2117
     26 C6         -3.3321   -4.4178   -0.0813 C.ar      1 ACP         0.7177
     27 N6         -4.5476   -4.6866   -0.7335 N.pl3     1 ACP        -0.9401
     28 N1         -2.4608   -5.4225    0.1773 N.ar      1 ACP        -0.8008
     29 C2         -1.3053   -5.1020    0.8081 C.ar      1 ACP         0.6565
     30 N3         -0.8788   -3.8921    1.2315 N.ar      1 ACP        -0.7061
     31 C4         -1.7870   -2.9477    0.9438 C.ar      1 ACP         0.5715
     32 HOG3       -5.4580    2.2453   -3.3604 H         1 ACP         0.4226
     33 HOB2       -1.1209    7.4285   -0.8907 H         1 ACP         0.4482
     34 H3B1       -2.4795    4.3909   -2.5500 H         1 ACP         0.1012
     35 H3B2       -3.9215    5.4009   -2.6017 H         1 ACP         0.1012
     36 H5'1       -1.7769    2.7851    2.1387 H         1 ACP         0.0481
     37 H5'2       -1.1653    2.0543    0.6320 H         1 ACP         0.0481
     38 H4'         0.0403    1.7078    3.4343 H         1 ACP         0.0904
     39 H3'         1.5906    1.4859    1.1353 H         1 ACP         0.0809
     40 HO3'        2.1521    0.9800    3.3017 H         1 ACP         0.4528
     41 H2'        -0.0017    0.0018    0.0005 H         1 ACP         0.0594
     42 HO2'        2.0953   -0.9375    0.0709 H         1 ACP         0.4344
     43 H1'        -0.1998   -1.6319    2.6178 H         1 ACP         0.1127
     44 H8         -3.0609    0.0200    0.8250 H         1 ACP         0.1050
     45 HN61       -5.2046   -3.9433   -0.8775 H         1 ACP         0.4211
     46 HN62       -4.7849   -5.6332   -0.9625 H         1 ACP         0.4211
     47 H2         -0.6318   -5.9307    0.9993 H         1 ACP         0.0375
@<TRIPOS>BOND
     1    1    2 2
     2    1    3 1
     3    1    4 1
     4    1    8 1
     5    4   32 1
     6    5    6 2
     7    5    7 1
     8    5    8 1
     9    5   12 1
    10    7   33 1
    11    8   34 1
    12    8   35 1
    13    9   10 2
    14    9   11 1
    15    9   12 1
    16    9   13 1
    17   13   14 1
    18   14   15 1
    19   14   36 1
    20   14   37 1
    21   15   16 1
    22   15   17 1
    23   15   38 1
    24   16   21 1
    25   17   18 1
    26   17   19 1
    27   17   39 1
    28   18   40 1
    29   19   20 1
    30   19   21 1
    31   19   41 1
    32   20   42 1
    33   21   22 1
    34   21   43 1
    35   22   23 ar
    36   22   31 ar
    37   23   24 ar
    38   23   44 1
    39   24   25 ar
    40   25   26 ar
    41   25   31 ar
    42   26   27 1
    43   26   28 ar
    44   27   45 1
    45   27   46 1
    46   28   29 ar
    47   29   30 ar
    48   29   47 1
    49   30   31 ar
@<TRIPOS>SUBSTRUCTURE
     1 ACP         1 GROUP 0 A     ****
@<TRIPOS>MOLECULE
[[[5-(6-aminopurin-9-yl)-3,4-dihydroxy-tetrahydrofuran-2-yl]methoxy-oxido-phosphoryl]oxy-hydroxy-phosphoryl]methyl-hydroxy-phosphinate
   47    49     1     0     0
SMALL
USER_CHARGES

@<TRIPOS>ATOM
      1 PG         -1.1820    5.2490    6.4285 P.3       1 ACP         1.3516
      2 O1G        -0.2843    4.1952    5.8227 O.co2     1 ACP        -0.8379
      3 O2G        -1.9419    5.0190    7.7144 O.co2     1 ACP        -0.8379
      4 O3G        -0.3718    6.6613    6.5237 O.3       1 ACP        -0.7980
      5 PB         -1.9507    6.4369    3.5386 P.3       1 ACP         1.7688
      6 O1B        -1.1905    7.7271    3.6129 O.2       1 ACP        -0.9167
      7 O2B        -3.3514    6.5194    2.7367 O.3       1 ACP        -0.8201
      8 C3B        -2.4123    5.7331    5.1359 C.3       1 ACP        -0.6097
      9 PA         -0.5788    5.0303    1.3262 P.3       1 ACP         1.5979
     10 O1A         0.5862    5.9826    1.1662 O.co2     1 ACP        -0.8617
     11 O2A        -1.7218    5.0335    0.3346 O.co2     1 ACP        -0.8617
     12 O3A        -1.1812    5.2058    2.8328 O.3       1 ACP        -0.8283
     13 O5'         0.0181    3.5132    1.4596 O.3       1 ACP        -0.5783
     14 C5'        -0.8811    2.4285    1.6206 C.3       1 ACP         0.1980
     15 C4'        -0.1994    1.3333    2.4288 C.3       1 ACP         0.0815
     16 O4'        -1.1285    0.2356    2.5840 O.3       1 ACP        -0.4127
     17 C3'         1.0324    0.7610    1.7344 C.3       1 ACP         0.0890
     18 O3'         1.9175    0.2377    2.7247 O.3       1 ACP        -0.6221
     19 C2'         0.4468   -0.3802    0.9263 C.3       1 ACP         0.1067
     20 O2'         1.3993   -1.3703    0.5961 O.3       1 ACP        -0.6053
     21 C1'        -0.6159   -0.9100    1.8769 C.3       1 ACP         0.4223
     22 N9         -1.7127   -1.6108    1.2130 N.pl3     1 ACP        -0.6834
     23 C8         -1.7712   -2.9546    0.9544 C.ar      1 ACP         0.5614
     24 N7         -2.8883   -3.2948    0.3462 N.2       1 ACP        -0.5751
     25 C5         -3.5834   -2.1202    0.2043 C.ar      1 ACP        -0.2117
     26 C6         -4.8225   -1.8251   -0.3554 C.ar      1 ACP         0.7177
     27 N6         -5.6154   -2.8395   -0.9189 N.pl3     1 ACP        -0.9401
     28 N1         -5.2589   -0.5425   -0.3507 N.ar      1 ACP        -0.8008
     29 C2         -4.4510    0.3913    0.2069 C.ar      1 ACP         0.6565
     30 N3         -3.2368    0.2296    0.7767 N.ar      1 ACP        -0.7061
     31 C4         -2.8684   -1.0596    0.7376 C.ar      1 ACP         0.5715
     32 HOG3        0.4502    6.6940    7.0581 H         1 ACP         0.4226
     33 HOB2       -3.3438    6.7898    1.7939 H         1 ACP         0.4482
     34 H3B1       -3.0150    4.8387    4.9421 H         1 ACP         0.1012
     35 H3B2       -3.0673    6.4603    5.6276 H         1 ACP         0.1012
     36 H5'1       -1.7769    2.7851    2.1387 H         1 ACP         0.0481
     37 H5'2       -1.1653    2.0543    0.6320 H         1 ACP         0.0481
     38 H4'         0.0403    1.7078    3.4343 H         1 ACP         0.0904
     39 H3'         1.5906    1.4859    1.1353 H         1 ACP         0.0809
     40 HO3'        2.6839   -0.1150    2.2479 H         1 ACP         0.4528
     41 H2'        -0.0017    0.0018    0.0005 H         1 ACP         0.0594
     42 HO2'        0.9369   -2.0558    0.0825 H         1 ACP         0.4344
     43 H1'        -0.1998   -1.6319    2.6178 H         1 ACP         0.1127
     44 H8         -0.9745   -3.6312    1.2318 H         1 ACP         0.1050
     45 HN61       -5.2619   -3.7766   -0.9586 H         1 ACP         0.4211
     46 HN62       -6.4834   -2.5990   -1.3590 H         1 ACP         0.4211
     47 H2         -4.8317    1.4071    0.1930 H         1 ACP         0.0375
@<TRIPOS>BOND
     1    1    2 2
     2    1    3 1
     3    1    4 1
     4    1    8 1
     5    4   32 1
     6    5    6 2
     7    5    7 1
     8    5    8 1
     9    5   12 1
    10    7   33 1
    11    8   34 1
    12    8   35 1
    13    9   10 2
    14    9   11 1
    15    9   12 1
    16    9   13 1
    17   13   14 1
    18   14   15 1
    19   14   36 1
    20   14   37 1
    21   15   16 1
    22   15   17 1
    23   15   38 1
    24   16   21 1
    25   17   18 1
    26   17   19 1
    27   17   39 1
    28   18   40 1
    29   19   20 1
    30   19   21 1
    31   19   41 1
    32   20   42 1
    33   21   22 1
    34   21   43 1
    35   22   23 ar
    36   22   31 ar
    37   23   24 ar
    38   23   44 1
    39   24   25 ar
    40   25   26 ar
    41   25   31 ar
    42   26   27 1
    43   26   28 ar
    44   27   45 1
    45   27   46 1
    46   28   29 ar
    47   29   30 ar
    48   29   47 1
    49   30   31 ar
@<TRIPOS>SUBSTRUCTURE
     1 ACP         1 GROUP 0 A     ****
@<TRIPOS>MOLECULE
[[[5-(6-aminopurin-9-yl)-3,4-dihydroxy-tetrahydrofuran-2-yl]methoxy-oxido-phosphoryl]oxy-hydroxy-phosphoryl]methyl-hydroxy-phosphinate
   47    49     1     0     0
SMALL
USER_CHARGES

@<TRIPOS>ATOM
      1 PG         -2.9884    3.4971   -2.5219 P.3       1 ACP         1.3516
      2 O1G        -3.8383    2.8452   -3.5878 O.co2     1 ACP        -0.8379
      3 O2G        -2.2213    2.6927   -1.4981 O.co2     1 ACP        -0.8379
      4 O3G        -1.9897    4.5844   -3.2150 O.3       1 ACP        -0.7980
      5 PB         -3.4912    5.6947   -0.2258 P.3       1 ACP         1.7688
      6 O1B        -4.5310    6.5865    0.3838 O.2       1 ACP        -0.9167
      7 O2B        -2.2077    6.4656   -0.8342 O.3       1 ACP        -0.8201
      8 C3B        -4.0720    4.6787   -1.6007 C.3       1 ACP        -0.6097
      9 PA         -2.0038    4.7531    2.1525 P.3       1 ACP         1.5979
     10 O1A        -2.9393    5.2969    3.2104 O.co2     1 ACP        -0.8617
     11 O2A        -0.6860    5.4370    1.8604 O.co2     1 ACP        -0.8617
     12 O3A        -2.8410    4.5946    0.7605 O.3       1 ACP        -0.8283
     13 O5'        -1.7337    3.1724    2.4753 O.3       1 ACP        -0.5783
     14 C5'        -0.8811    2.4285    1.6206 C.3       1 ACP         0.1980
     15 C4'        -0.1994    1.3333    2.4288 C.3       1 ACP         0.0815
     16 O4'        -1.1285    0.2356    2.5840 O.3       1 ACP        -0.4127
     17 C3'         1.0324    0.7610    1.7344 C.3       1 ACP         0.0890
     18 O3'         1.9175    0.2377    2.7247 O.3       1 ACP        -0.6221
     19 C2'         0.4468   -0.3802    0.9263 C.3       1 ACP         0.1067
     20 O2'         1.3993   -1.3703    0.5961 O.3       1 ACP        -0.6053
     21 C1'        -0.6159   -0.9100    1.8769 C.3       1 ACP         0.4223
     22 N9         -1.7127   -1.6108    1.2130 N.pl3     1 ACP        -0.6834
     23 C8         -2.8641   -1.0399    0.7392 C.ar      1 ACP         0.5614
     24 N7         -3.6659   -1.9257    0.1858 N.2       1 ACP        -0.5751
     25 C5         -3.0053   -3.1223    0.3069 C.ar      1 ACP        -0.2117
     26 C6         -3.3321   -4.4178   -0.0813 C.ar      1 ACP         0.7177
     27 N6         -4.5476   -4.6866   -0.7335 N.pl3     1 ACP        -0.9401
     28 N1         -2.4608   -5.4225    0.1773 N.ar      1 ACP        -0.8008
     29 C2         -1.3053   -5.1020    0.8081 C.ar      1 ACP         0.6565
     30 N3         -0.8788   -3.8921    1.2315 N.ar      1 ACP        -0.7061
     31 C4         -1.7870   -2.9477    0.9438 C.ar      1 ACP         0.5715
     32 HOG3       -1.3499    4.2690   -3.8885 H         1 ACP         0.4226
     33 HOB2       -1.6584    7.0175   -0.2377 H         1 ACP         0.4482
     34 H3B1       -4.4948    5.3522   -2.3548 H         1 ACP         0.1012
     35 H3B2       -4.8967    4.0672   -1.2192 H         1 ACP         0.1012
     36 H5'1       -1.4802    1.9928    0.8147 H         1 ACP         0.0481
     37 H5'2       -0.1369    3.1042    1.1873 H         1 ACP         0.0481
     38 H4'         0.0403    1.7078    3.4343 H         1 ACP         0.0904
     39 H3'         1.5906    1.4859    1.1353 H         1 ACP         0.0809
     40 HO3'        2.1521    0.9800    3.3017 H         1 ACP         0.4528
     41 H2'        -0.0017    0.0018    0.0005 H         1 ACP         0.0594
     42 HO2'        2.0953   -0.9375    0.0709 H         1 ACP         0.4344
     43 H1'        -0.1998   -1.6319    2.6178 H         1 ACP         0.1127
     44 H8         -3.0609    0.0200    0.8250 H         1 ACP         0.1050
     45 HN61       -5.2046   -3.9433   -0.8775 H         1 ACP         0.4211
     46 HN62       -4.7849   -5.6332   -0.9625 H         1 ACP         0.4211
     47 H2         -0.6318   -5.9307    0.9993 H         1 ACP         0.0375
@<TRIPOS>BOND
     1    1    2 2
     2    1    3 1
     3    1    4 1
     4    1    8 1
     5    4   32 1
     6    5    6 2
     7    5    7 1
     8    5    8 1
     9    5   12 1
    10    7   33 1
    11    8   34 1
    12    8   35 1
    13    9   10 2
    14    9   11 1
    15    9   12 1
    16    9   13 1
    17   13   14 1
    18   14   15 1
    19   14   36 1
    20   14   37 1
    21   15   16 1
    22   15   17 1
    23   15   38 1
    24   16   21 1
    25   17   18 1
    26   17   19 1
    27   17   39 1
    28   18   40 1
    29   19   20 1
    30   19   21 1
    31   19   41 1
    32   20   42 1
    33   21   22 1
    34   21   43 1
    35   22   23 ar
    36   22   31 ar
    37   23   24 ar
    38   23   44 1
    39   24   25 ar
    40   25   26 ar
    41   25   31 ar
    42   26   27 1
    43   26   28 ar
    44   27   45 1
    45   27   46 1
    46   28   29 ar
    47   29   30 ar
    48   29   47 1
    49   30   31 ar
@<TRIPOS>SUBSTRUCTURE
     1 ACP         1 GROUP 0 A     ****
@<TRIPOS>MOLECULE
[[[5-(6-aminopurin-9-yl)-3,4-dihydroxy-tetrahydrofuran-2-yl]methoxy-oxido-phosphoryl]oxy-hydroxy-phosphoryl]methyl-hydroxy-phosphinate
   47    49     1     0     0
SMALL
USER_CHARGES

@<TRIPOS>ATOM
      1 PG         -3.3685    3.4480   -2.4302 P.3       1 ACP         1.3516
      2 O1G        -4.3286    3.6665   -3.5764 O.co2     1 ACP        -0.8379
      3 O2G        -3.7835    3.6167   -0.9870 O.co2     1 ACP        -0.8379
      4 O3G        -2.6234    2.0089   -2.6146 O.3       1 ACP        -0.7980
      5 PB         -0.4906    4.6265   -1.6037 P.3       1 ACP         1.7688
      6 O1B         0.5881    5.5802   -2.0222 O.2       1 ACP        -0.9167
      7 O2B        -0.0200    3.0865   -1.4673 O.3       1 ACP        -0.8201
      8 C3B        -1.9078    4.5442   -2.7194 C.3       1 ACP        -0.6097
      9 PA         -0.5788    5.0303    1.3262 P.3       1 ACP         1.5979
     10 O1A        -1.7294    5.1711    2.2989 O.co2     1 ACP        -0.8617
     11 O2A         0.5650    6.0209    1.3331 O.co2     1 ACP        -0.8617
     12 O3A        -1.1922    4.9364   -0.1832 O.3       1 ACP        -0.8283
     13 O5'         0.0181    3.5132    1.4596 O.3       1 ACP        -0.5783
     14 C5'        -0.8811    2.4285    1.6206 C.3       1 ACP         0.1980
     15 C4'        -0.1994    1.3333    2.4288 C.3       1 ACP         0.0815
     16 O4'        -1.1285    0.2356    2.5840 O.3       1 ACP        -0.4127
     17 C3'         1.0324    0.7610    1.7344 C.3       1 ACP         0.0890
     18 O3'         1.9175    0.2377    2.7247 O.3       1 ACP        -0.6221
     19 C2'         0.4468   -0.3802    0.9263 C.3       1 ACP         0.1067
     20 O2'         1.3993   -1.3703    0.5961 O.3       1 ACP        -0.6053
     21 C1'        -0.6159   -0.9100    1.8769 C.3       1 ACP         0.4223
     22 N9         -1.7127   -1.6108    1.2130 N.pl3     1 ACP        -0.6834
     23 C8         -2.8641   -1.0399    0.7392 C.ar      1 ACP         0.5614
     24 N7         -3.6659   -1.9257    0.1858 N.2       1 ACP        -0.5751
     25 C5         -3.0053   -3.1223    0.3069 C.ar      1 ACP        -0.2117
     26 C6         -3.3321   -4.4178   -0.0813 C.ar      1 ACP         0.7177
     27 N6         -4.5476   -4.6866   -0.7335 N.pl3     1 ACP        -0.9401
     28 N1         -2.4608   -5.4225    0.1773 N.ar      1 ACP        -0.8008
     29 C2         -1.3053   -5.1020    0.8081 C.ar      1 ACP         0.6565
     30 N3         -0.8788   -3.8921    1.2315 N.ar      1 ACP        -0.7061
     31 C4         -1.7870   -2.9477    0.9438 C.ar      1 ACP         0.5715
     32 HOG3       -3.1736    1.1971   -2.6398 H         1 ACP         0.4226
     33 HOB2        0.6902    2.8616   -0.8293 H         1 ACP         0.4482
     34 H3B1       -1.5305    4.2886   -3.7160 H         1 ACP         0.1012
     35 H3B2       -2.3223    5.5560   -2.7837 H         1 ACP         0.1012
     36 H5'1       -1.7769    2.7851    2.1387 H         1 ACP         0.0481
     37 H5'2       -1.1653    2.0543    0.6320 H         1 ACP         0.0481
     38 H4'         0.0403    1.7078    3.4343 H         1 ACP         0.0904
     39 H3'         1.5906    1.4859    1.1353 H         1 ACP         0.0809
     40 HO3'        2.6839   -0.1150    2.2479 H         1 ACP         0.4528
     41 H2'        -0.0017    0.0018    0.0005 H         1 ACP         0.0594
     42 HO2'        2.0953   -0.9375    0.0709 H         1 ACP         0.4344
     43 H1'        -0.1998   -1.6319    2.6178 H         1 ACP         0.1127
     44 H8         -3.0609    0.0200    0.8250 H         1 ACP         0.1050
     45 HN61       -5.2046   -3.9433   -0.8775 H         1 ACP         0.4211
     46 HN62       -4.7849   -5.6332   -0.9625 H         1 ACP         0.4211
     47 H2         -0.6318   -5.9307    0.9993 H         1 ACP         0.0375
@<TRIPOS>BOND
     1    1    2 2
     2    1    3 1
     3    1    4 1
     4    1    8 1
     5    4   32 1
     6    5    6 2
     7    5    7 1
     8    5    8 1
     9    5   12 1
    10    7   33 1
    11    8   34 1
    12    8   35 1
    13    9   10 2
    14    9   11 1
    15    9   12 1
    16    9   13 1
    17   13   14 1
    18   14   15 1
    19   14   36 1
    20   14   37 1
    21   15   16 1
    22   15   17 1
    23   15   38 1
    24   16   21 1
    25   17   18 1
    26   17   19 1
    27   17   39 1
    28   18   40 1
    29   19   20 1
    30   19   21 1
    31   19   41 1
    32   20   42 1
    33   21   22 1
    34   21   43 1
    35   22   23 ar
    36   22   31 ar
    37   23   24 ar
    38   23   44 1
    39   24   25 ar
    40   25   26 ar
    41   25   31 ar
    42   26   27 1
    43   26   28 ar
    44   27   45 1
    45   27   46 1
    46   28   29 ar
    47   29   30 ar
    48   29   47 1
    49   30   31 ar
@<TRIPOS>SUBSTRUCTURE
     1 ACP         1 GROUP 0 A     ****
@<TRIPOS>MOLECULE
[[[5-(6-aminopurin-9-yl)-3,4-dihydroxy-tetrahydrofuran-2-yl]methoxy-oxido-phosphoryl]oxy-hydroxy-phosphoryl]methyl-hydroxy-phosphinate
   47    49     1     0     0
SMALL
USER_CHARGES

@<TRIPOS>ATOM
      1 PG         -4.6892    5.3867    3.5047 P.3       1 ACP         1.3516
      2 O1G        -4.7896    4.7444    2.1406 O.co2     1 ACP        -0.8379
      3 O2G        -5.8239    6.1825    4.1070 O.co2     1 ACP        -0.8379
      4 O3G        -4.1683    4.2827    4.5863 O.3       1 ACP        -0.7980
      5 PB         -1.5227    5.8633    3.1872 P.3       1 ACP         1.7688
      6 O1B        -1.0383    4.8351    4.1651 O.2       1 ACP        -0.9167
      7 O2B        -0.6293    7.2081    3.1176 O.3       1 ACP        -0.8201
      8 C3B        -3.1940    6.4746    3.4919 C.3       1 ACP        -0.6097
      9 PA         -0.4663    4.8326    0.6227 P.3       1 ACP         1.5979
     10 O1A         0.6760    5.8249    0.6052 O.co2     1 ACP        -0.8617
     11 O2A        -1.1288    4.3936   -0.6650 O.co2     1 ACP        -0.8617
     12 O3A        -1.6097    5.3851    1.6478 O.3       1 ACP        -0.8283
     13 O5'         0.0181    3.5132    1.4596 O.3       1 ACP        -0.5783
     14 C5'        -0.8811    2.4285    1.6206 C.3       1 ACP         0.1980
     15 C4'        -0.1994    1.3333    2.4288 C.3       1 ACP         0.0815
     16 O4'        -1.1285    0.2356    2.5840 O.3       1 ACP        -0.4127
     17 C3'         1.0324    0.7610    1.7344 C.3       1 ACP         0.0890
     18 O3'         1.9175    0.2377    2.7247 O.3       1 ACP        -0.6221
     19 C2'         0.4468   -0.3802    0.9263 C.3       1 ACP         0.1067
     20 O2'         1.3993   -1.3703    0.5961 O.3       1 ACP        -0.6053
     21 C1'        -0.6159   -0.9100    1.8769 C.3       1 ACP         0.4223
     22 N9         -1.7127   -1.6108    1.2130 N.pl3     1 ACP        -0.6834
     23 C8         -2.0877   -2.9101    1.4304 C.ar      1 ACP         0.5614
     24 N7         -3.1152   -3.2613    0.6857 N.2       1 ACP        -0.5751
     25 C5         -3.4186   -2.1409   -0.0462 C.ar      1 ACP        -0.2117
     26 C6         -4.3953   -1.8809   -1.0023 C.ar      1 ACP         0.7177
     27 N6         -5.3118   -2.8767   -1.3812 N.pl3     1 ACP        -0.9401
     28 N1         -4.4538   -0.6507   -1.5667 N.ar      1 ACP        -0.8008
     29 C2         -3.5442    0.2679   -1.1609 C.ar      1 ACP         0.6565
     30 N3         -2.5561    0.1361   -0.2491 N.ar      1 ACP        -0.7061
     31 C4         -2.5568   -1.1019    0.2674 C.ar      1 ACP         0.5715
     32 HOG3       -4.7077    3.4757    4.7276 H         1 ACP         0.4226
     33 HOB2        0.3162    7.1377    2.8662 H         1 ACP         0.4482
     34 H3B1       -3.3985    7.2608    2.7563 H         1 ACP         0.1012
     35 H3B2       -3.1842    6.9527    4.4772 H         1 ACP         0.1012
     36 H5'1       -1.7769    2.7851    2.1387 H         1 ACP         0.0481
     37 H5'2       -1.1653    2.0543    0.6320 H         1 ACP         0.0481
     38 H4'         0.0403    1.7078    3.4343 H         1 ACP         0.0904
     39 H3'         1.5906    1.4859    1.1353 H         1 ACP         0.0809
     40 HO3'        2.1521    0.9800    3.3017 H         1 ACP         0.4528
     41 H2'        -0.0017    0.0018    0.0005 H         1 ACP         0.0594
     42 HO2'        0.9369   -2.0558    0.0825 H         1 ACP         0.4344
     43 H1'        -0.1998   -1.6319    2.6178 H         1 ACP         0.1127
     44 H8         -1.5778   -3.5473    2.1399 H         1 ACP         0.1050
     45 HN61       -5.2294   -3.7965   -0.9914 H         1 ACP         0.4211
     46 HN62       -5.9774   -2.6837   -2.1055 H         1 ACP         0.4211
     47 H2         -3.6201    1.2414   -1.6336 H         1 ACP         0.0375
@<TRIPOS>BOND
     1    1    2 2
     2    1    3 1
     3    1    4 1
     4    1    8 1
     5    4   32 1
     6    5    6 2
     7    5    7 1
     8    5    8 1
     9    5   12 1
    10    7   33 1
    11    8   34 1
    12    8   35 1
    13    9   10 2
    14    9   11 1
    15    9   12 1
    16    9   13 1
    17   13   14 1
    18   14   15 1
    19   14   36 1
    20   14   37 1
    21   15   16 1
    22   15   17 1
    23   15   38 1
    24   16   21 1
    25   17   18 1
    26   17   19 1
    27   17   39 1
    28   18   40 1
    29   19   20 1
    30   19   21 1
    31   19   41 1
    32   20   42 1
    33   21   22 1
    34   21   43 1
    35   22   23 ar
    36   22   31 ar
    37   23   24 ar
    38   23   44 1
    39   24   25 ar
    40   25   26 ar
    41   25   31 ar
    42   26   27 1
    43   26   28 ar
    44   27   45 1
    45   27   46 1
    46   28   29 ar
    47   29   30 ar
    48   29   47 1
    49   30   31 ar
@<TRIPOS>SUBSTRUCTURE
     1 ACP         1 GROUP 0 A     ****
@<TRIPOS>MOLECULE
[[[5-(6-aminopurin-9-yl)-3,4-dihydroxy-tetrahydrofuran-2-yl]methoxy-oxido-phosphoryl]oxy-hydroxy-phosphoryl]methyl-hydroxy-phosphinate
   47    49     1     0     0
SMALL
USER_CHARGES

@<TRIPOS>ATOM
      1 PG          1.9394    6.0771    4.0363 P.3       1 ACP         1.3516
      2 O1G         2.4341    7.0023    2.9489 O.co2     1 ACP        -0.8379
      3 O2G         1.8829    4.5777    3.8557 O.co2     1 ACP        -0.8379
      4 O3G         2.7049    6.4255    5.4337 O.3       1 ACP        -0.7980
      5 PB         -1.1398    6.7157    3.3547 P.3       1 ACP         1.7688
      6 O1B        -0.9300    7.6162    2.1744 O.2       1 ACP        -0.9167
      7 O2B        -2.4003    7.1033    4.2889 O.3       1 ACP        -0.8201
      8 C3B         0.2445    6.6431    4.5115 C.3       1 ACP        -0.6097
      9 PA         -2.5403    4.4097    2.1396 P.3       1 ACP         1.5979
     10 O1A        -2.3645    4.8018    0.6886 O.co2     1 ACP        -0.8617
     11 O2A        -3.8743    4.5856    2.8318 O.co2     1 ACP        -0.8617
     12 O3A        -1.3835    5.1562    3.0160 O.3       1 ACP        -0.8283
     13 O5'        -2.0402    2.8619    2.3131 O.3       1 ACP        -0.5783
     14 C5'        -0.8811    2.4285    1.6206 C.3       1 ACP         0.1980
     15 C4'        -0.1994    1.3333    2.4288 C.3       1 ACP         0.0815
     16 O4'        -1.1285    0.2356    2.5840 O.3       1 ACP        -0.4127
     17 C3'         1.0324    0.7610    1.7344 C.3       1 ACP         0.0890
     18 O3'         1.9175    0.2377    2.7247 O.3       1 ACP        -0.6221
     19 C2'         0.4468   -0.3802    0.9263 C.3       1 ACP         0.1067
     20 O2'         1.3993   -1.3703    0.5961 O.3       1 ACP        -0.6053
     21 C1'        -0.6159   -0.9100    1.8769 C.3       1 ACP         0.4223
     22 N9         -1.7127   -1.6108    1.2130 N.pl3     1 ACP        -0.6834
     23 C8         -2.5476   -1.0844    0.2632 C.ar      1 ACP         0.5614
     24 N7         -3.4391   -1.9591   -0.1536 N.2       1 ACP        -0.5751
     25 C5         -3.1701   -3.1016    0.5574 C.ar      1 ACP        -0.2117
     26 C6         -3.7593   -4.3620    0.5656 C.ar      1 ACP         0.7177
     27 N6         -4.8512   -4.6493   -0.2712 N.pl3     1 ACP        -0.9401
     28 N1         -3.2659   -5.3144    1.3932 N.ar      1 ACP        -0.8008
     29 C2         -2.2122   -4.9785    2.1759 C.ar      1 ACP         0.6565
     30 N3         -1.5595   -3.7985    2.2572 N.ar      1 ACP        -0.7061
     31 C4         -2.0986   -2.9054    1.4140 C.ar      1 ACP         0.5715
     32 HOG3        3.6823    6.3483    5.4635 H         1 ACP         0.4226
     33 HOB2       -3.2985    7.1122    3.8949 H         1 ACP         0.4482
     34 H3B1       -0.0602    6.0114    5.3536 H         1 ACP         0.1012
     35 H3B2        0.3848    7.6556    4.9050 H         1 ACP         0.1012
     36 H5'1       -1.1770    2.0503    0.6369 H         1 ACP         0.0481
     37 H5'2       -0.2082    3.2815    1.4877 H         1 ACP         0.0481
     38 H4'         0.0403    1.7078    3.4343 H         1 ACP         0.0904
     39 H3'         1.5906    1.4859    1.1353 H         1 ACP         0.0809
     40 HO3'        2.1521    0.9800    3.3017 H         1 ACP         0.4528
     41 H2'        -0.0017    0.0018    0.0005 H         1 ACP         0.0594
     42 HO2'        2.0953   -0.9375    0.0709 H         1 ACP         0.4344
     43 H1'        -0.1998   -1.6319    2.6178 H         1 ACP         0.1127
     44 H8         -2.4576   -0.0639   -0.0831 H         1 ACP         0.1050
     45 HN61       -5.2371   -3.9234   -0.8448 H         1 ACP         0.4211
     46 HN62       -5.2909   -5.5485   -0.2160 H         1 ACP         0.4211
     47 H2         -1.8433   -5.7650    2.8259 H         1 ACP         0.0375
@<TRIPOS>BOND
     1    1    2 2
     2    1    3 1
     3    1    4 1
     4    1    8 1
     5    4   32 1
     6    5    6 2
     7    5    7 1
     8    5    8 1
     9    5   12 1
    10    7   33 1
    11    8   34 1
    12    8   35 1
    13    9   10 2
    14    9   11 1
    15    9   12 1
    16    9   13 1
    17   13   14 1
    18   14   15 1
    19   14   36 1
    20   14   37 1
    21   15   16 1
    22   15   17 1
    23   15   38 1
    24   16   21 1
    25   17   18 1
    26   17   19 1
    27   17   39 1
    28   18   40 1
    29   19   20 1
    30   19   21 1
    31   19   41 1
    32   20   42 1
    33   21   22 1
    34   21   43 1
    35   22   23 ar
    36   22   31 ar
    37   23   24 ar
    38   23   44 1
    39   24   25 ar
    40   25   26 ar
    41   25   31 ar
    42   26   27 1
    43   26   28 ar
    44   27   45 1
    45   27   46 1
    46   28   29 ar
    47   29   30 ar
    48   29   47 1
    49   30   31 ar
@<TRIPOS>SUBSTRUCTURE
     1 ACP         1 GROUP 0 A     ****
@<TRIPOS>MOLECULE
[[[5-(6-aminopurin-9-yl)-3,4-dihydroxy-tetrahydrofuran-2-yl]methoxy-oxido-phosphoryl]oxy-hydroxy-phosphoryl]methyl-hydroxy-phosphinate
   47    49     1     0     0
SMALL
USER_CHARGES

@<TRIPOS>ATOM
      1 PG          6.2001    0.0248   -4.0826 P.3       1 ACP         1.3516
      2 O1G         7.0301   -0.6041   -5.1776 O.co2     1 ACP        -0.8379
      3 O2G         4.7335   -0.2907   -3.9000 O.co2     1 ACP        -0.8379
      4 O3G         6.9714   -0.1410   -2.6552 O.3       1 ACP        -0.7980
      5 PB          5.5322    3.0358   -3.1650 P.3       1 ACP         1.7688
      6 O1B         4.0358    2.9423   -3.1481 O.2       1 ACP        -0.9167
      7 O2B         6.1178    4.4678   -3.6319 O.3       1 ACP        -0.8201
      8 C3B         6.3554    1.8589   -4.2590 C.3       1 ACP        -0.6097
      9 PA          6.1595    3.5245   -0.3149 P.3       1 ACP         1.5979
     10 O1A         6.3881    5.0035   -0.5385 O.co2     1 ACP        -0.8617
     11 O2A         6.9730    2.7625    0.7085 O.co2     1 ACP        -0.8617
     12 O3A         6.2706    2.7650   -1.7552 O.3       1 ACP        -0.8283
     13 O5'         4.5669    3.2940   -0.0211 O.3       1 ACP        -0.5783
     14 C5'         4.0922    1.9801    0.2227 C.3       1 ACP         0.1980
     15 C4'         2.5944    2.0310    0.4653 C.3       1 ACP         0.0815
     16 O4'         1.9327    2.5740   -0.6889 O.3       1 ACP        -0.4127
     17 C3'         1.9685    0.6634    0.6767 C.3       1 ACP         0.0890
     18 O3'         2.1425    0.1975    1.9977 O.3       1 ACP        -0.6221
     19 C2'         0.5176    0.9128    0.3099 C.3       1 ACP         0.1067
     20 O2'        -0.2103    1.4454    1.4152 O.3       1 ACP        -0.6053
     21 C1'         0.6219    1.9765   -0.7844 C.3       1 ACP         0.4223
     22 N9          0.4237    1.4496   -2.1357 N.pl3     1 ACP        -0.6834
     23 C8          1.1856    0.4888   -2.7458 C.ar      1 ACP         0.5614
     24 N7          0.7615    0.2176   -3.9625 N.2       1 ACP        -0.5751
     25 C5         -0.3220    1.0389   -4.1486 C.ar      1 ACP        -0.2117
     26 C6         -1.1900    1.2182   -5.2210 C.ar      1 ACP         0.7177
     27 N6         -1.0341    0.4739   -6.4028 N.pl3     1 ACP        -0.9401
     28 N1         -2.1929    2.1227   -5.1127 N.ar      1 ACP        -0.8008
     29 C2         -2.2930    2.8097   -3.9492 C.ar      1 ACP         0.6565
     30 N3         -1.5176    2.7252   -2.8462 N.ar      1 ACP        -0.7061
     31 C4         -0.5489    1.8142   -3.0226 C.ar      1 ACP         0.5715
     32 HOG3        7.1687   -1.0461   -2.3325 H         1 ACP         0.4226
     33 HOB2        5.8835    5.2681   -3.1155 H         1 ACP         0.4482
     34 H3B1        7.4293    2.0755   -4.2308 H         1 ACP         0.1012
     35 H3B2        6.0118    2.0749   -5.2763 H         1 ACP         0.1012
     36 H5'1        4.3180    1.3550   -0.6470 H         1 ACP         0.0481
     37 H5'2        4.6085    1.5739    1.0983 H         1 ACP         0.0481
     38 H4'         2.3751    2.7029    1.3156 H         1 ACP         0.0904
     39 H3'         2.4336   -0.1217   -0.0015 H         1 ACP         0.0809
     40 HO3'        1.7160   -0.6716    2.0397 H         1 ACP         0.4528
     41 H2'         0.0316    0.0155   -0.0339 H         1 ACP         0.0594
     42 HO2'       -0.1608    0.7921    2.1351 H         1 ACP         0.4344
     43 H1'        -0.1474    2.7798   -0.6651 H         1 ACP         0.1127
     44 H8          2.0314    0.0256   -2.2564 H         1 ACP         0.1050
     45 HN61       -0.2609   -0.1582   -6.4888 H         1 ACP         0.4211
     46 HN62       -1.6409    0.6517   -7.1807 H         1 ACP         0.4211
     47 H2         -3.1067    3.5253   -3.8975 H         1 ACP         0.0375
@<TRIPOS>BOND
     1    1    2 2
     2    1    3 1
     3    1    4 1
     4    1    8 1
     5    4   32 1
     6    5    6 2
     7    5    7 1
     8    5    8 1
     9    5   12 1
    10    7   33 1
    11    8   34 1
    12    8   35 1
    13    9   10 2
    14    9   11 1
    15    9   12 1
    16    9   13 1
    17   13   14 1
    18   14   15 1
    19   14   36 1
    20   14   37 1
    21   15   16 1
    22   15   17 1
    23   15   38 1
    24   16   21 1
    25   17   18 1
    26   17   19 1
    27   17   39 1
    28   18   40 1
    29   19   20 1
    30   19   21 1
    31   19   41 1
    32   20   42 1
    33   21   22 1
    34   21   43 1
    35   22   23 ar
    36   22   31 ar
    37   23   24 ar
    38   23   44 1
    39   24   25 ar
    40   25   26 ar
    41   25   31 ar
    42   26   27 1
    43   26   28 ar
    44   27   45 1
    45   27   46 1
    46   28   29 ar
    47   29   30 ar
    48   29   47 1
    49   30   31 ar
@<TRIPOS>SUBSTRUCTURE
     1 ACP         1 GROUP 0 A     ****
@<TRIPOS>MOLECULE
[[[5-(6-aminopurin-9-yl)-3,4-dihydroxy-tetrahydrofuran-2-yl]methoxy-oxido-phosphoryl]oxy-hydroxy-phosphoryl]methyl-hydroxy-phosphinate
   47    49     1     0     0
SMALL
USER_CHARGES

@<TRIPOS>ATOM
      1 PG         -0.8038    6.0873   -1.2491 P.3       1 ACP         1.3516
      2 O1G        -1.1611    6.2883   -2.7035 O.co2     1 ACP        -0.8379
      3 O2G        -0.5390    4.7188   -0.6652 O.co2     1 ACP        -0.8379
      4 O3G         0.4157    7.0927   -0.8468 O.3       1 ACP        -0.7980
      5 PB         -2.1462    6.8838    1.5647 P.3       1 ACP         1.7688
      6 O1B        -3.3230    7.5729    2.1880 O.2       1 ACP        -0.9167
      7 O2B        -0.7086    7.5145    1.9484 O.3       1 ACP        -0.8201
      8 C3B        -2.1406    6.8716   -0.2407 C.3       1 ACP        -0.6097
      9 PA         -2.9650    4.0420    1.6588 P.3       1 ACP         1.5979
     10 O1A        -3.0500    3.8015    0.1672 O.co2     1 ACP        -0.8617
     11 O2A        -4.2197    4.2123    2.4872 O.co2     1 ACP        -0.8617
     12 O3A        -1.9798    5.3173    1.9171 O.3       1 ACP        -0.8283
     13 O5'        -2.0402    2.8619    2.3131 O.3       1 ACP        -0.5783
     14 C5'        -0.8811    2.4285    1.6206 C.3       1 ACP         0.1980
     15 C4'        -0.1994    1.3333    2.4288 C.3       1 ACP         0.0815
     16 O4'        -1.1285    0.2356    2.5840 O.3       1 ACP        -0.4127
     17 C3'         1.0324    0.7610    1.7344 C.3       1 ACP         0.0890
     18 O3'         1.9175    0.2377    2.7247 O.3       1 ACP        -0.6221
     19 C2'         0.4468   -0.3802    0.9263 C.3       1 ACP         0.1067
     20 O2'         1.3993   -1.3703    0.5961 O.3       1 ACP        -0.6053
     21 C1'        -0.6159   -0.9100    1.8769 C.3       1 ACP         0.4223
     22 N9         -1.7127   -1.6108    1.2130 N.pl3     1 ACP        -0.6834
     23 C8         -1.7712   -2.9546    0.9544 C.ar      1 ACP         0.5614
     24 N7         -2.8883   -3.2948    0.3462 N.2       1 ACP        -0.5751
     25 C5         -3.5834   -2.1202    0.2043 C.ar      1 ACP        -0.2117
     26 C6         -4.8225   -1.8251   -0.3554 C.ar      1 ACP         0.7177
     27 N6         -5.6154   -2.8395   -0.9189 N.pl3     1 ACP        -0.9401
     28 N1         -5.2589   -0.5425   -0.3507 N.ar      1 ACP        -0.8008
     29 C2         -4.4510    0.3913    0.2069 C.ar      1 ACP         0.6565
     30 N3         -3.2368    0.2296    0.7767 N.ar      1 ACP        -0.7061
     31 C4         -2.8684   -1.0596    0.7376 C.ar      1 ACP         0.5715
     32 HOG3        1.2667    7.0119   -1.3281 H         1 ACP         0.4226
     33 HOB2       -0.4370    7.5393    2.8906 H         1 ACP         0.4482
     34 H3B1       -2.2039    7.9119   -0.5793 H         1 ACP         0.1012
     35 H3B2       -3.0632    6.3746   -0.5592 H         1 ACP         0.1012
     36 H5'1       -1.1770    2.0503    0.6369 H         1 ACP         0.0481
     37 H5'2       -0.2082    3.2815    1.4877 H         1 ACP         0.0481
     38 H4'         0.0403    1.7078    3.4343 H         1 ACP         0.0904
     39 H3'         1.5906    1.4859    1.1353 H         1 ACP         0.0809
     40 HO3'        2.6839   -0.1150    2.2479 H         1 ACP         0.4528
     41 H2'        -0.0017    0.0018    0.0005 H         1 ACP         0.0594
     42 HO2'        2.0953   -0.9375    0.0709 H         1 ACP         0.4344
     43 H1'        -0.1998   -1.6319    2.6178 H         1 ACP         0.1127
     44 H8         -0.9745   -3.6312    1.2318 H         1 ACP         0.1050
     45 HN61       -5.2619   -3.7766   -0.9586 H         1 ACP         0.4211
     46 HN62       -6.4834   -2.5990   -1.3590 H         1 ACP         0.4211
     47 H2         -4.8317    1.4071    0.1930 H         1 ACP         0.0375
@<TRIPOS>BOND
     1    1    2 2
     2    1    3 1
     3    1    4 1
     4    1    8 1
     5    4   32 1
     6    5    6 2
     7    5    7 1
     8    5    8 1
     9    5   12 1
    10    7   33 1
    11    8   34 1
    12    8   35 1
    13    9   10 2
    14    9   11 1
    15    9   12 1
    16    9   13 1
    17   13   14 1
    18   14   15 1
    19   14   36 1
    20   14   37 1
    21   15   16 1
    22   15   17 1
    23   15   38 1
    24   16   21 1
    25   17   18 1
    26   17   19 1
    27   17   39 1
    28   18   40 1
    29   19   20 1
    30   19   21 1
    31   19   41 1
    32   20   42 1
    33   21   22 1
    34   21   43 1
    35   22   23 ar
    36   22   31 ar
    37   23   24 ar
    38   23   44 1
    39   24   25 ar
    40   25   26 ar
    41   25   31 ar
    42   26   27 1
    43   26   28 ar
    44   27   45 1
    45   27   46 1
    46   28   29 ar
    47   29   30 ar
    48   29   47 1
    49   30   31 ar
@<TRIPOS>SUBSTRUCTURE
     1 ACP         1 GROUP 0 A     ****
@<TRIPOS>MOLECULE
[[[5-(6-aminopurin-9-yl)-3,4-dihydroxy-tetrahydrofuran-2-yl]methoxy-oxido-phosphoryl]oxy-hydroxy-phosphoryl]methyl-hydroxy-phosphinate
   47    49     1     0     0
SMALL
USER_CHARGES

@<TRIPOS>ATOM
      1 PG         -2.5791    4.0577   -2.9907 P.3       1 ACP         1.3516
      2 O1G        -2.9399    4.7652   -4.2763 O.co2     1 ACP        -0.8379
      3 O2G        -2.1037    2.6235   -2.9654 O.co2     1 ACP        -0.8379
      4 O3G        -1.5476    4.9852   -2.1330 O.3       1 ACP        -0.7980
      5 PB         -4.0810    3.4716   -0.2060 P.3       1 ACP         1.7688
      6 O1B        -3.8774    1.9874   -0.1452 O.2       1 ACP        -0.9167
      7 O2B        -5.4875    3.9894    0.3985 O.3       1 ACP        -0.8201
      8 C3B        -4.0431    4.1771   -1.8675 C.3       1 ACP        -0.6097
      9 PA         -2.5403    4.4097    2.1396 P.3       1 ACP         1.5979
     10 O1A        -3.7850    4.5996    2.9788 O.co2     1 ACP        -0.8617
     11 O2A        -1.3558    5.3389    2.2922 O.co2     1 ACP        -0.8617
     12 O3A        -2.9826    4.3653    0.5693 O.3       1 ACP        -0.8283
     13 O5'        -2.0402    2.8619    2.3131 O.3       1 ACP        -0.5783
     14 C5'        -0.8811    2.4285    1.6206 C.3       1 ACP         0.1980
     15 C4'        -0.1994    1.3333    2.4288 C.3       1 ACP         0.0815
     16 O4'        -1.1285    0.2356    2.5840 O.3       1 ACP        -0.4127
     17 C3'         1.0324    0.7610    1.7344 C.3       1 ACP         0.0890
     18 O3'         1.9175    0.2377    2.7247 O.3       1 ACP        -0.6221
     19 C2'         0.4468   -0.3802    0.9263 C.3       1 ACP         0.1067
     20 O2'         1.3993   -1.3703    0.5961 O.3       1 ACP        -0.6053
     21 C1'        -0.6159   -0.9100    1.8769 C.3       1 ACP         0.4223
     22 N9         -1.7127   -1.6108    1.2130 N.pl3     1 ACP        -0.6834
     23 C8         -2.5476   -1.0844    0.2632 C.ar      1 ACP         0.5614
     24 N7         -3.4391   -1.9591   -0.1536 N.2       1 ACP        -0.5751
     25 C5         -3.1701   -3.1016    0.5574 C.ar      1 ACP        -0.2117
     26 C6         -3.7593   -4.3620    0.5656 C.ar      1 ACP         0.7177
     27 N6         -4.8512   -4.6493   -0.2712 N.pl3     1 ACP        -0.9401
     28 N1         -3.2659   -5.3144    1.3932 N.ar      1 ACP        -0.8008
     29 C2         -2.2122   -4.9785    2.1759 C.ar      1 ACP         0.6565
     30 N3         -1.5595   -3.7985    2.2572 N.ar      1 ACP        -0.7061
     31 C4         -2.0986   -2.9054    1.4140 C.ar      1 ACP         0.5715
     32 HOG3       -0.6868    5.2250   -2.5379 H         1 ACP         0.4226
     33 HOB2       -5.6958    3.8076    1.3396 H         1 ACP         0.4482
     34 H3B1       -4.2700    5.2455   -1.7791 H         1 ACP         0.1012
     35 H3B2       -4.8663    3.7201   -2.4269 H         1 ACP         0.1012
     36 H5'1       -1.1770    2.0503    0.6369 H         1 ACP         0.0481
     37 H5'2       -0.2082    3.2815    1.4877 H         1 ACP         0.0481
     38 H4'         0.0403    1.7078    3.4343 H         1 ACP         0.0904
     39 H3'         1.5906    1.4859    1.1353 H         1 ACP         0.0809
     40 HO3'        2.6839   -0.1150    2.2479 H         1 ACP         0.4528
     41 H2'        -0.0017    0.0018    0.0005 H         1 ACP         0.0594
     42 HO2'        2.0953   -0.9375    0.0709 H         1 ACP         0.4344
     43 H1'        -0.1998   -1.6319    2.6178 H         1 ACP         0.1127
     44 H8         -2.4576   -0.0639   -0.0831 H         1 ACP         0.1050
     45 HN61       -5.2371   -3.9234   -0.8448 H         1 ACP         0.4211
     46 HN62       -5.2909   -5.5485   -0.2160 H         1 ACP         0.4211
     47 H2         -1.8433   -5.7650    2.8259 H         1 ACP         0.0375
@<TRIPOS>BOND
     1    1    2 2
     2    1    3 1
     3    1    4 1
     4    1    8 1
     5    4   32 1
     6    5    6 2
     7    5    7 1
     8    5    8 1
     9    5   12 1
    10    7   33 1
    11    8   34 1
    12    8   35 1
    13    9   10 2
    14    9   11 1
    15    9   12 1
    16    9   13 1
    17   13   14 1
    18   14   15 1
    19   14   36 1
    20   14   37 1
    21   15   16 1
    22   15   17 1
    23   15   38 1
    24   16   21 1
    25   17   18 1
    26   17   19 1
    27   17   39 1
    28   18   40 1
    29   19   20 1
    30   19   21 1
    31   19   41 1
    32   20   42 1
    33   21   22 1
    34   21   43 1
    35   22   23 ar
    36   22   31 ar
    37   23   24 ar
    38   23   44 1
    39   24   25 ar
    40   25   26 ar
    41   25   31 ar
    42   26   27 1
    43   26   28 ar
    44   27   45 1
    45   27   46 1
    46   28   29 ar
    47   29   30 ar
    48   29   47 1
    49   30   31 ar
@<TRIPOS>SUBSTRUCTURE
     1 ACP         1 GROUP 0 A     ****
@<TRIPOS>MOLECULE
[[[5-(6-aminopurin-9-yl)-3,4-dihydroxy-tetrahydrofuran-2-yl]methoxy-oxido-phosphoryl]oxy-hydroxy-phosphoryl]methyl-hydroxy-phosphinate
   47    49     1     0     0
SMALL
USER_CHARGES

@<TRIPOS>ATOM
      1 PG         -3.1746    3.6459   -2.8917 P.3       1 ACP         1.3516
      2 O1G        -3.0509    3.2267   -4.3382 O.co2     1 ACP        -0.8379
      3 O2G        -4.5120    3.9151   -2.2415 O.co2     1 ACP        -0.8379
      4 O3G        -2.3137    2.6244   -1.9561 O.3       1 ACP        -0.7980
      5 PB         -1.9677    6.0234   -1.0904 P.3       1 ACP         1.7688
      6 O1B        -3.2505    6.5532   -0.5229 O.2       1 ACP        -0.9167
      7 O2B        -0.8418    7.1445   -1.3859 O.3       1 ACP        -0.8201
      8 C3B        -2.1335    5.1571   -2.6658 C.3       1 ACP        -0.6097
      9 PA         -0.5788    5.0303    1.3262 P.3       1 ACP         1.5979
     10 O1A        -1.7294    5.1711    2.2989 O.co2     1 ACP        -0.8617
     11 O2A         0.5650    6.0209    1.3331 O.co2     1 ACP        -0.8617
     12 O3A        -1.1922    4.9364   -0.1832 O.3       1 ACP        -0.8283
     13 O5'         0.0181    3.5132    1.4596 O.3       1 ACP        -0.5783
     14 C5'        -0.8811    2.4285    1.6206 C.3       1 ACP         0.1980
     15 C4'        -0.1994    1.3333    2.4288 C.3       1 ACP         0.0815
     16 O4'        -1.1285    0.2356    2.5840 O.3       1 ACP        -0.4127
     17 C3'         1.0324    0.7610    1.7344 C.3       1 ACP         0.0890
     18 O3'         1.9175    0.2377    2.7247 O.3       1 ACP        -0.6221
     19 C2'         0.4468   -0.3802    0.9263 C.3       1 ACP         0.1067
     20 O2'         1.3993   -1.3703    0.5961 O.3       1 ACP        -0.6053
     21 C1'        -0.6159   -0.9100    1.8769 C.3       1 ACP         0.4223
     22 N9         -1.7127   -1.6108    1.2130 N.pl3     1 ACP        -0.6834
     23 C8         -1.7712   -2.9546    0.9544 C.ar      1 ACP         0.5614
     24 N7         -2.8883   -3.2948    0.3462 N.2       1 ACP        -0.5751
     25 C5         -3.5834   -2.1202    0.2043 C.ar      1 ACP        -0.2117
     26 C6         -4.8225   -1.8251   -0.3554 C.ar      1 ACP         0.7177
     27 N6         -5.6154   -2.8395   -0.9189 N.pl3     1 ACP        -0.9401
     28 N1         -5.2589   -0.5425   -0.3507 N.ar      1 ACP        -0.8008
     29 C2         -4.4510    0.3913    0.2069 C.ar      1 ACP         0.6565
     30 N3         -3.2368    0.2296    0.7767 N.ar      1 ACP        -0.7061
     31 C4         -2.8684   -1.0596    0.7376 C.ar      1 ACP         0.5715
     32 HOG3       -2.5498    1.6723   -1.9628 H         1 ACP         0.4226
     33 HOB2       -0.5091    7.6910   -0.6424 H         1 ACP         0.4482
     34 H3B1       -1.1266    4.8835   -3.0010 H         1 ACP         0.1012
     35 H3B2       -2.5258    5.8810   -3.3881 H         1 ACP         0.1012
     36 H5'1       -1.7769    2.7851    2.1387 H         1 ACP         0.0481
     37 H5'2       -1.1653    2.0543    0.6320 H         1 ACP         0.0481
     38 H4'         0.0403    1.7078    3.4343 H         1 ACP         0.0904
     39 H3'         1.5906    1.4859    1.1353 H         1 ACP         0.0809
     40 HO3'        2.1521    0.9800    3.3017 H         1 ACP         0.4528
     41 H2'        -0.0017    0.0018    0.0005 H         1 ACP         0.0594
     42 HO2'        0.9369   -2.0558    0.0825 H         1 ACP         0.4344
     43 H1'        -0.1998   -1.6319    2.6178 H         1 ACP         0.1127
     44 H8         -0.9745   -3.6312    1.2318 H         1 ACP         0.1050
     45 HN61       -5.2619   -3.7766   -0.9586 H         1 ACP         0.4211
     46 HN62       -6.4834   -2.5990   -1.3590 H         1 ACP         0.4211
     47 H2         -4.8317    1.4071    0.1930 H         1 ACP         0.0375
@<TRIPOS>BOND
     1    1    2 2
     2    1    3 1
     3    1    4 1
     4    1    8 1
     5    4   32 1
     6    5    6 2
     7    5    7 1
     8    5    8 1
     9    5   12 1
    10    7   33 1
    11    8   34 1
    12    8   35 1
    13    9   10 2
    14    9   11 1
    15    9   12 1
    16    9   13 1
    17   13   14 1
    18   14   15 1
    19   14   36 1
    20   14   37 1
    21   15   16 1
    22   15   17 1
    23   15   38 1
    24   16   21 1
    25   17   18 1
    26   17   19 1
    27   17   39 1
    28   18   40 1
    29   19   20 1
    30   19   21 1
    31   19   41 1
    32   20   42 1
    33   21   22 1
    34   21   43 1
    35   22   23 ar
    36   22   31 ar
    37   23   24 ar
    38   23   44 1
    39   24   25 ar
    40   25   26 ar
    41   25   31 ar
    42   26   27 1
    43   26   28 ar
    44   27   45 1
    45   27   46 1
    46   28   29 ar
    47   29   30 ar
    48   29   47 1
    49   30   31 ar
@<TRIPOS>SUBSTRUCTURE
     1 ACP         1 GROUP 0 A     ****
@<TRIPOS>MOLECULE
[[[5-(6-aminopurin-9-yl)-3,4-dihydroxy-tetrahydrofuran-2-yl]methoxy-oxido-phosphoryl]oxy-hydroxy-phosphoryl]methyl-hydroxy-phosphinate
   47    49     1     0     0
SMALL
USER_CHARGES

@<TRIPOS>ATOM
      1 PG         -5.5368    4.3512    2.8164 P.3       1 ACP         1.3516
      2 O1G        -5.1872    3.9516    1.4016 O.co2     1 ACP        -0.8379
      3 O2G        -6.9164    4.8336    3.2007 O.co2     1 ACP        -0.8379
      4 O3G        -5.0697    3.1732    3.8431 O.3       1 ACP        -0.7980
      5 PB         -2.5453    5.3833    3.3992 P.3       1 ACP         1.7688
      6 O1B        -2.1041    4.2913    4.3271 O.2       1 ACP        -0.9167
      7 O2B        -1.9491    6.8461    3.7402 O.3       1 ACP        -0.8201
      8 C3B        -4.3295    5.6521    3.3350 C.3       1 ACP        -0.6097
      9 PA         -0.7383    5.0057    1.0867 P.3       1 ACP         1.5979
     10 O1A         0.1534    6.1575    1.4965 O.co2     1 ACP        -0.8617
     11 O2A        -0.9823    4.6989   -0.3748 O.co2     1 ACP        -0.8617
     12 O3A        -2.1752    5.1761    1.8416 O.3       1 ACP        -0.8283
     13 O5'        -0.2060    3.6558    1.8418 O.3       1 ACP        -0.5783
     14 C5'        -0.8811    2.4285    1.6206 C.3       1 ACP         0.1980
     15 C4'        -0.1994    1.3333    2.4288 C.3       1 ACP         0.0815
     16 O4'        -1.1285    0.2356    2.5840 O.3       1 ACP        -0.4127
     17 C3'         1.0324    0.7610    1.7344 C.3       1 ACP         0.0890
     18 O3'         1.9175    0.2377    2.7247 O.3       1 ACP        -0.6221
     19 C2'         0.4468   -0.3802    0.9263 C.3       1 ACP         0.1067
     20 O2'         1.3993   -1.3703    0.5961 O.3       1 ACP        -0.6053
     21 C1'        -0.6159   -0.9100    1.8769 C.3       1 ACP         0.4223
     22 N9         -1.7127   -1.6108    1.2130 N.pl3     1 ACP        -0.6834
     23 C8         -2.5476   -1.0844    0.2632 C.ar      1 ACP         0.5614
     24 N7         -3.4391   -1.9591   -0.1536 N.2       1 ACP        -0.5751
     25 C5         -3.1701   -3.1016    0.5574 C.ar      1 ACP        -0.2117
     26 C6         -3.7593   -4.3620    0.5656 C.ar      1 ACP         0.7177
     27 N6         -4.8512   -4.6493   -0.2712 N.pl3     1 ACP        -0.9401
     28 N1         -3.2659   -5.3144    1.3932 N.ar      1 ACP        -0.8008
     29 C2         -2.2122   -4.9785    2.1759 C.ar      1 ACP         0.6565
     30 N3         -1.5595   -3.7985    2.2572 N.ar      1 ACP        -0.7061
     31 C4         -2.0986   -2.9054    1.4140 C.ar      1 ACP         0.5715
     32 HOG3       -5.4536    2.2772    3.7329 H         1 ACP         0.4226
     33 HOB2       -0.9768    6.9754    3.7368 H         1 ACP         0.4482
     34 H3B1       -4.5116    6.5119    2.6804 H         1 ACP         0.1012
     35 H3B2       -4.6445    5.9443    4.3424 H         1 ACP         0.1012
     36 H5'1       -1.9255    2.5382    1.9294 H         1 ACP         0.0481
     37 H5'2       -0.8473    2.1933    0.5521 H         1 ACP         0.0481
     38 H4'         0.0403    1.7078    3.4343 H         1 ACP         0.0904
     39 H3'         1.5906    1.4859    1.1353 H         1 ACP         0.0809
     40 HO3'        2.6839   -0.1150    2.2479 H         1 ACP         0.4528
     41 H2'        -0.0017    0.0018    0.0005 H         1 ACP         0.0594
     42 HO2'        2.0953   -0.9375    0.0709 H         1 ACP         0.4344
     43 H1'        -0.1998   -1.6319    2.6178 H         1 ACP         0.1127
     44 H8         -2.4576   -0.0639   -0.0831 H         1 ACP         0.1050
     45 HN61       -5.2371   -3.9234   -0.8448 H         1 ACP         0.4211
     46 HN62       -5.2909   -5.5485   -0.2160 H         1 ACP         0.4211
     47 H2         -1.8433   -5.7650    2.8259 H         1 ACP         0.0375
@<TRIPOS>BOND
     1    1    2 2
     2    1    3 1
     3    1    4 1
     4    1    8 1
     5    4   32 1
     6    5    6 2
     7    5    7 1
     8    5    8 1
     9    5   12 1
    10    7   33 1
    11    8   34 1
    12    8   35 1
    13    9   10 2
    14    9   11 1
    15    9   12 1
    16    9   13 1
    17   13   14 1
    18   14   15 1
    19   14   36 1
    20   14   37 1
    21   15   16 1
    22   15   17 1
    23   15   38 1
    24   16   21 1
    25   17   18 1
    26   17   19 1
    27   17   39 1
    28   18   40 1
    29   19   20 1
    30   19   21 1
    31   19   41 1
    32   20   42 1
    33   21   22 1
    34   21   43 1
    35   22   23 ar
    36   22   31 ar
    37   23   24 ar
    38   23   44 1
    39   24   25 ar
    40   25   26 ar
    41   25   31 ar
    42   26   27 1
    43   26   28 ar
    44   27   45 1
    45   27   46 1
    46   28   29 ar
    47   29   30 ar
    48   29   47 1
    49   30   31 ar
@<TRIPOS>SUBSTRUCTURE
     1 ACP         1 GROUP 0 A     ****
@<TRIPOS>MOLECULE
[[[5-(6-aminopurin-9-yl)-3,4-dihydroxy-tetrahydrofuran-2-yl]methoxy-oxido-phosphoryl]oxy-hydroxy-phosphoryl]methyl-hydroxy-phosphinate
   47    49     1     0     0
SMALL
USER_CHARGES

@<TRIPOS>ATOM
      1 PG         -5.8689    3.5573    2.5954 P.3       1 ACP         1.3516
      2 O1G        -7.0341    2.8894    3.2878 O.co2     1 ACP        -0.8379
      3 O2G        -5.6027    5.0402    2.7136 O.co2     1 ACP        -0.8379
      4 O3G        -4.4998    2.7337    2.9226 O.3       1 ACP        -0.7980
      5 PB         -4.8157    3.7433   -0.4395 P.3       1 ACP         1.7688
      6 O1B        -4.7059    5.2344   -0.5517 O.2       1 ACP        -0.9167
      7 O2B        -5.2738    2.9922   -1.7951 O.3       1 ACP        -0.8201
      8 C3B        -5.9969    3.1584    0.7944 C.3       1 ACP        -0.6097
      9 PA         -1.9977    2.8866   -0.7226 P.3       1 ACP         1.5979
     10 O1A        -1.3565    4.2551   -0.6463 O.co2     1 ACP        -0.8617
     11 O2A        -2.1290    2.1671   -2.0473 O.co2     1 ACP        -0.8617
     12 O3A        -3.4654    2.9679   -0.0136 O.3       1 ACP        -0.8283
     13 O5'        -1.2434    1.9102    0.3513 O.3       1 ACP        -0.5783
     14 C5'        -0.8811    2.4285    1.6206 C.3       1 ACP         0.1980
     15 C4'        -0.1994    1.3333    2.4288 C.3       1 ACP         0.0815
     16 O4'        -1.1285    0.2356    2.5840 O.3       1 ACP        -0.4127
     17 C3'         1.0324    0.7610    1.7344 C.3       1 ACP         0.0890
     18 O3'         1.9175    0.2377    2.7247 O.3       1 ACP        -0.6221
     19 C2'         0.4468   -0.3802    0.9263 C.3       1 ACP         0.1067
     20 O2'         1.3993   -1.3703    0.5961 O.3       1 ACP        -0.6053
     21 C1'        -0.6159   -0.9100    1.8769 C.3       1 ACP         0.4223
     22 N9         -1.7127   -1.6108    1.2130 N.pl3     1 ACP        -0.6834
     23 C8         -2.8641   -1.0399    0.7392 C.ar      1 ACP         0.5614
     24 N7         -3.6659   -1.9257    0.1858 N.2       1 ACP        -0.5751
     25 C5         -3.0053   -3.1223    0.3069 C.ar      1 ACP        -0.2117
     26 C6         -3.3321   -4.4178   -0.0813 C.ar      1 ACP         0.7177
     27 N6         -4.5476   -4.6866   -0.7335 N.pl3     1 ACP        -0.9401
     28 N1         -2.4608   -5.4225    0.1773 N.ar      1 ACP        -0.8008
     29 C2         -1.3053   -5.1020    0.8081 C.ar      1 ACP         0.6565
     30 N3         -0.8788   -3.8921    1.2315 N.ar      1 ACP        -0.7061
     31 C4         -1.7870   -2.9477    0.9438 C.ar      1 ACP         0.5715
     32 HOG3       -4.2191    2.6458    3.8584 H         1 ACP         0.4226
     33 HOB2       -4.7184    3.0817   -2.5987 H         1 ACP         0.4482
     34 H3B1       -6.0307    2.0650    0.7286 H         1 ACP         0.1012
     35 H3B2       -6.9828    3.5280    0.4926 H         1 ACP         0.1012
     36 H5'1       -0.2034    3.2760    1.4766 H         1 ACP         0.0481
     37 H5'2       -1.7842    2.7761    2.1321 H         1 ACP         0.0481
     38 H4'         0.0403    1.7078    3.4343 H         1 ACP         0.0904
     39 H3'         1.5906    1.4859    1.1353 H         1 ACP         0.0809
     40 HO3'        2.6839   -0.1150    2.2479 H         1 ACP         0.4528
     41 H2'        -0.0017    0.0018    0.0005 H         1 ACP         0.0594
     42 HO2'        2.0953   -0.9375    0.0709 H         1 ACP         0.4344
     43 H1'        -0.1998   -1.6319    2.6178 H         1 ACP         0.1127
     44 H8         -3.0609    0.0200    0.8250 H         1 ACP         0.1050
     45 HN61       -5.2046   -3.9433   -0.8775 H         1 ACP         0.4211
     46 HN62       -4.7849   -5.6332   -0.9625 H         1 ACP         0.4211
     47 H2         -0.6318   -5.9307    0.9993 H         1 ACP         0.0375
@<TRIPOS>BOND
     1    1    2 2
     2    1    3 1
     3    1    4 1
     4    1    8 1
     5    4   32 1
     6    5    6 2
     7    5    7 1
     8    5    8 1
     9    5   12 1
    10    7   33 1
    11    8   34 1
    12    8   35 1
    13    9   10 2
    14    9   11 1
    15    9   12 1
    16    9   13 1
    17   13   14 1
    18   14   15 1
    19   14   36 1
    20   14   37 1
    21   15   16 1
    22   15   17 1
    23   15   38 1
    24   16   21 1
    25   17   18 1
    26   17   19 1
    27   17   39 1
    28   18   40 1
    29   19   20 1
    30   19   21 1
    31   19   41 1
    32   20   42 1
    33   21   22 1
    34   21   43 1
    35   22   23 ar
    36   22   31 ar
    37   23   24 ar
    38   23   44 1
    39   24   25 ar
    40   25   26 ar
    41   25   31 ar
    42   26   27 1
    43   26   28 ar
    44   27   45 1
    45   27   46 1
    46   28   29 ar
    47   29   30 ar
    48   29   47 1
    49   30   31 ar
@<TRIPOS>SUBSTRUCTURE
     1 ACP         1 GROUP 0 A     ****
@<TRIPOS>MOLECULE
[[[5-(6-aminopurin-9-yl)-3,4-dihydroxy-tetrahydrofuran-2-yl]methoxy-oxido-phosphoryl]oxy-hydroxy-phosphoryl]methyl-hydroxy-phosphinate
   47    49     1     0     0
SMALL
USER_CHARGES

@<TRIPOS>ATOM
      1 PG          2.3448    3.9841   -2.6345 P.3       1 ACP         1.3516
      2 O1G         2.7956    3.1610   -3.8189 O.co2     1 ACP        -0.8379
      3 O2G         2.4130    3.4633   -1.2175 O.co2     1 ACP        -0.8379
      4 O3G         3.0390    5.4583   -2.7035 O.3       1 ACP        -0.7980
      5 PB         -0.3693    5.5016   -1.8069 P.3       1 ACP         1.7688
      6 O1B        -1.7671    5.8054   -2.2566 O.2       1 ACP        -0.9167
      7 O2B         0.5607    6.7994   -1.5570 O.3       1 ACP        -0.8201
      8 C3B         0.5970    4.4964   -2.9539 C.3       1 ACP        -0.6097
      9 PA         -0.7383    5.0057    1.0867 P.3       1 ACP         1.5979
     10 O1A        -2.2514    4.9889    1.1027 O.co2     1 ACP        -0.8617
     11 O2A         0.0270    6.2040    1.6044 O.co2     1 ACP        -0.8617
     12 O3A        -0.2379    4.6695   -0.4299 O.3       1 ACP        -0.8283
     13 O5'        -0.2060    3.6558    1.8418 O.3       1 ACP        -0.5783
     14 C5'        -0.8811    2.4285    1.6206 C.3       1 ACP         0.1980
     15 C4'        -0.1994    1.3333    2.4288 C.3       1 ACP         0.0815
     16 O4'        -1.1285    0.2356    2.5840 O.3       1 ACP        -0.4127
     17 C3'         1.0324    0.7610    1.7344 C.3       1 ACP         0.0890
     18 O3'         1.9175    0.2377    2.7247 O.3       1 ACP        -0.6221
     19 C2'         0.4468   -0.3802    0.9263 C.3       1 ACP         0.1067
     20 O2'         1.3993   -1.3703    0.5961 O.3       1 ACP        -0.6053
     21 C1'        -0.6159   -0.9100    1.8769 C.3       1 ACP         0.4223
     22 N9         -1.7127   -1.6108    1.2130 N.pl3     1 ACP        -0.6834
     23 C8         -1.7712   -2.9546    0.9544 C.ar      1 ACP         0.5614
     24 N7         -2.8883   -3.2948    0.3462 N.2       1 ACP        -0.5751
     25 C5         -3.5834   -2.1202    0.2043 C.ar      1 ACP        -0.2117
     26 C6         -4.8225   -1.8251   -0.3554 C.ar      1 ACP         0.7177
     27 N6         -5.6154   -2.8395   -0.9189 N.pl3     1 ACP        -0.9401
     28 N1         -5.2589   -0.5425   -0.3507 N.ar      1 ACP        -0.8008
     29 C2         -4.4510    0.3913    0.2069 C.ar      1 ACP         0.6565
     30 N3         -3.2368    0.2296    0.7767 N.ar      1 ACP        -0.7061
     31 C4         -2.8684   -1.0596    0.7376 C.ar      1 ACP         0.5715
     32 HOG3        4.0182    5.5152   -2.6909 H         1 ACP         0.4226
     33 HOB2        0.2847    7.4595   -0.8861 H         1 ACP         0.4482
     34 H3B1        0.6051    5.0123   -3.9207 H         1 ACP         0.1012
     35 H3B2        0.0492    3.5587   -3.0958 H         1 ACP         0.1012
     36 H5'1       -1.9255    2.5382    1.9294 H         1 ACP         0.0481
     37 H5'2       -0.8473    2.1933    0.5521 H         1 ACP         0.0481
     38 H4'         0.0403    1.7078    3.4343 H         1 ACP         0.0904
     39 H3'         1.5906    1.4859    1.1353 H         1 ACP         0.0809
     40 HO3'        2.6839   -0.1150    2.2479 H         1 ACP         0.4528
     41 H2'        -0.0017    0.0018    0.0005 H         1 ACP         0.0594
     42 HO2'        2.0953   -0.9375    0.0709 H         1 ACP         0.4344
     43 H1'        -0.1998   -1.6319    2.6178 H         1 ACP         0.1127
     44 H8         -0.9745   -3.6312    1.2318 H         1 ACP         0.1050
     45 HN61       -5.2619   -3.7766   -0.9586 H         1 ACP         0.4211
     46 HN62       -6.4834   -2.5990   -1.3590 H         1 ACP         0.4211
     47 H2         -4.8317    1.4071    0.1930 H         1 ACP         0.0375
@<TRIPOS>BOND
     1    1    2 2
     2    1    3 1
     3    1    4 1
     4    1    8 1
     5    4   32 1
     6    5    6 2
     7    5    7 1
     8    5    8 1
     9    5   12 1
    10    7   33 1
    11    8   34 1
    12    8   35 1
    13    9   10 2
    14    9   11 1
    15    9   12 1
    16    9   13 1
    17   13   14 1
    18   14   15 1
    19   14   36 1
    20   14   37 1
    21   15   16 1
    22   15   17 1
    23   15   38 1
    24   16   21 1
    25   17   18 1
    26   17   19 1
    27   17   39 1
    28   18   40 1
    29   19   20 1
    30   19   21 1
    31   19   41 1
    32   20   42 1
    33   21   22 1
    34   21   43 1
    35   22   23 ar
    36   22   31 ar
    37   23   24 ar
    38   23   44 1
    39   24   25 ar
    40   25   26 ar
    41   25   31 ar
    42   26   27 1
    43   26   28 ar
    44   27   45 1
    45   27   46 1
    46   28   29 ar
    47   29   30 ar
    48   29   47 1
    49   30   31 ar
@<TRIPOS>SUBSTRUCTURE
     1 ACP         1 GROUP 0 A     ****
@<TRIPOS>MOLECULE
[[[5-(6-aminopurin-9-yl)-3,4-dihydroxy-tetrahydrofuran-2-yl]methoxy-oxido-phosphoryl]oxy-hydroxy-phosphoryl]methyl-hydroxy-phosphinate
   47    49     1     0     0
SMALL
USER_CHARGES

@<TRIPOS>ATOM
      1 PG          0.3291    7.1696   -0.0705 P.3       1 ACP         1.3516
      2 O1G         0.8358    8.5681   -0.3365 O.co2     1 ACP        -0.8379
      3 O2G         0.2865    6.1089   -1.1462 O.co2     1 ACP        -0.8379
      4 O3G         1.0676    6.5684    1.2535 O.3       1 ACP        -0.7980
      5 PB         -2.3911    5.9084    1.0974 P.3       1 ACP         1.7688
      6 O1B        -2.6918    4.9470   -0.0132 O.2       1 ACP        -0.9167
      7 O2B        -3.6906    6.5792    1.7852 O.3       1 ACP        -0.8201
      8 C3B        -1.3779    7.3255    0.6230 C.3       1 ACP        -0.6097
      9 PA         -1.9156    4.0919    3.3842 P.3       1 ACP         1.5979
     10 O1A        -3.2869    4.3461    3.9714 O.co2     1 ACP        -0.8617
     11 O2A        -0.7216    3.8543    4.2830 O.co2     1 ACP        -0.8617
     12 O3A        -1.5687    5.3044    2.3483 O.3       1 ACP        -0.8283
     13 O5'        -2.0402    2.8619    2.3131 O.3       1 ACP        -0.5783
     14 C5'        -0.8811    2.4285    1.6206 C.3       1 ACP         0.1980
     15 C4'        -0.1994    1.3333    2.4288 C.3       1 ACP         0.0815
     16 O4'        -1.1285    0.2356    2.5840 O.3       1 ACP        -0.4127
     17 C3'         1.0324    0.7610    1.7344 C.3       1 ACP         0.0890
     18 O3'         1.9175    0.2377    2.7247 O.3       1 ACP        -0.6221
     19 C2'         0.4468   -0.3802    0.9263 C.3       1 ACP         0.1067
     20 O2'         1.3993   -1.3703    0.5961 O.3       1 ACP        -0.6053
     21 C1'        -0.6159   -0.9100    1.8769 C.3       1 ACP         0.4223
     22 N9         -1.7127   -1.6108    1.2130 N.pl3     1 ACP        -0.6834
     23 C8         -2.8641   -1.0399    0.7392 C.ar      1 ACP         0.5614
     24 N7         -3.6659   -1.9257    0.1858 N.2       1 ACP        -0.5751
     25 C5         -3.0053   -3.1223    0.3069 C.ar      1 ACP        -0.2117
     26 C6         -3.3321   -4.4178   -0.0813 C.ar      1 ACP         0.7177
     27 N6         -4.5476   -4.6866   -0.7335 N.pl3     1 ACP        -0.9401
     28 N1         -2.4608   -5.4225    0.1773 N.ar      1 ACP        -0.8008
     29 C2         -1.3053   -5.1020    0.8081 C.ar      1 ACP         0.6565
     30 N3         -0.8788   -3.8921    1.2315 N.ar      1 ACP        -0.7061
     31 C4         -1.7870   -2.9477    0.9438 C.ar      1 ACP         0.5715
     32 HOG3        2.0449    6.4844    1.2465 H         1 ACP         0.4226
     33 HOB2       -4.3554    5.9980    2.2121 H         1 ACP         0.4482
     34 H3B1       -1.2899    7.9779    1.4991 H         1 ACP         0.1012
     35 H3B2       -1.9410    7.8809   -0.1347 H         1 ACP         0.1012
     36 H5'1       -1.1770    2.0503    0.6369 H         1 ACP         0.0481
     37 H5'2       -0.2082    3.2815    1.4877 H         1 ACP         0.0481
     38 H4'         0.0403    1.7078    3.4343 H         1 ACP         0.0904
     39 H3'         1.5906    1.4859    1.1353 H         1 ACP         0.0809
     40 HO3'        2.6839   -0.1150    2.2479 H         1 ACP         0.4528
     41 H2'        -0.0017    0.0018    0.0005 H         1 ACP         0.0594
     42 HO2'        2.0953   -0.9375    0.0709 H         1 ACP         0.4344
     43 H1'        -0.1998   -1.6319    2.6178 H         1 ACP         0.1127
     44 H8         -3.0609    0.0200    0.8250 H         1 ACP         0.1050
     45 HN61       -5.2046   -3.9433   -0.8775 H         1 ACP         0.4211
     46 HN62       -4.7849   -5.6332   -0.9625 H         1 ACP         0.4211
     47 H2         -0.6318   -5.9307    0.9993 H         1 ACP         0.0375
@<TRIPOS>BOND
     1    1    2 2
     2    1    3 1
     3    1    4 1
     4    1    8 1
     5    4   32 1
     6    5    6 2
     7    5    7 1
     8    5    8 1
     9    5   12 1
    10    7   33 1
    11    8   34 1
    12    8   35 1
    13    9   10 2
    14    9   11 1
    15    9   12 1
    16    9   13 1
    17   13   14 1
    18   14   15 1
    19   14   36 1
    20   14   37 1
    21   15   16 1
    22   15   17 1
    23   15   38 1
    24   16   21 1
    25   17   18 1
    26   17   19 1
    27   17   39 1
    28   18   40 1
    29   19   20 1
    30   19   21 1
    31   19   41 1
    32   20   42 1
    33   21   22 1
    34   21   43 1
    35   22   23 ar
    36   22   31 ar
    37   23   24 ar
    38   23   44 1
    39   24   25 ar
    40   25   26 ar
    41   25   31 ar
    42   26   27 1
    43   26   28 ar
    44   27   45 1
    45   27   46 1
    46   28   29 ar
    47   29   30 ar
    48   29   47 1
    49   30   31 ar
@<TRIPOS>SUBSTRUCTURE
     1 ACP         1 GROUP 0 A     ****
@<TRIPOS>MOLECULE
[[[5-(6-aminopurin-9-yl)-3,4-dihydroxy-tetrahydrofuran-2-yl]methoxy-oxido-phosphoryl]oxy-hydroxy-phosphoryl]methyl-hydroxy-phosphinate
   47    49     1     0     0
SMALL
USER_CHARGES

@<TRIPOS>ATOM
      1 PG         -4.0456    7.3137   -0.5929 P.3       1 ACP         1.3516
      2 O1G        -3.5735    6.3438   -1.6511 O.co2     1 ACP        -0.8379
      3 O2G        -3.5550    8.7417   -0.5309 O.co2     1 ACP        -0.8379
      4 O3G        -5.6754    7.2981   -0.5321 O.3       1 ACP        -0.7980
      5 PB         -2.0575    6.0726    1.6119 P.3       1 ACP         1.7688
      6 O1B        -2.0037    5.4592    2.9790 O.2       1 ACP        -0.9167
      7 O2B        -1.1973    7.4302    1.4426 O.3       1 ACP        -0.8201
      8 C3B        -3.7093    6.5395    1.0523 C.3       1 ACP        -0.6097
      9 PA         -0.0886    4.4447    0.1191 P.3       1 ACP         1.5979
     10 O1A         0.9772    5.5156    0.2036 O.co2     1 ACP        -0.8617
     11 O2A        -0.1967    3.5562   -1.1009 O.co2     1 ACP        -0.8617
     12 O3A        -1.5378    5.1403    0.4009 O.3       1 ACP        -0.8283
     13 O5'         0.0181    3.5132    1.4596 O.3       1 ACP        -0.5783
     14 C5'        -0.8811    2.4285    1.6206 C.3       1 ACP         0.1980
     15 C4'        -0.1994    1.3333    2.4288 C.3       1 ACP         0.0815
     16 O4'        -1.1285    0.2356    2.5840 O.3       1 ACP        -0.4127
     17 C3'         1.0324    0.7610    1.7344 C.3       1 ACP         0.0890
     18 O3'         1.9175    0.2377    2.7247 O.3       1 ACP        -0.6221
     19 C2'         0.4468   -0.3802    0.9263 C.3       1 ACP         0.1067
     20 O2'         1.3993   -1.3703    0.5961 O.3       1 ACP        -0.6053
     21 C1'        -0.6159   -0.9100    1.8769 C.3       1 ACP         0.4223
     22 N9         -1.7127   -1.6108    1.2130 N.pl3     1 ACP        -0.6834
     23 C8         -1.7712   -2.9546    0.9544 C.ar      1 ACP         0.5614
     24 N7         -2.8883   -3.2948    0.3462 N.2       1 ACP        -0.5751
     25 C5         -3.5834   -2.1202    0.2043 C.ar      1 ACP        -0.2117
     26 C6         -4.8225   -1.8251   -0.3554 C.ar      1 ACP         0.7177
     27 N6         -5.6154   -2.8395   -0.9189 N.pl3     1 ACP        -0.9401
     28 N1         -5.2589   -0.5425   -0.3507 N.ar      1 ACP        -0.8008
     29 C2         -4.4510    0.3913    0.2069 C.ar      1 ACP         0.6565
     30 N3         -3.2368    0.2296    0.7767 N.ar      1 ACP        -0.7061
     31 C4         -2.8684   -1.0596    0.7376 C.ar      1 ACP         0.5715
     32 HOG3       -6.1760    7.5436   -1.3392 H         1 ACP         0.4226
     33 HOB2       -0.2295    7.4022    1.6001 H         1 ACP         0.4482
     34 H3B1       -4.1319    7.2211    1.7992 H         1 ACP         0.1012
     35 H3B2       -4.3198    5.6303    1.0667 H         1 ACP         0.1012
     36 H5'1       -1.7769    2.7851    2.1387 H         1 ACP         0.0481
     37 H5'2       -1.1653    2.0543    0.6320 H         1 ACP         0.0481
     38 H4'         0.0403    1.7078    3.4343 H         1 ACP         0.0904
     39 H3'         1.5906    1.4859    1.1353 H         1 ACP         0.0809
     40 HO3'        2.6839   -0.1150    2.2479 H         1 ACP         0.4528
     41 H2'        -0.0017    0.0018    0.0005 H         1 ACP         0.0594
     42 HO2'        2.0953   -0.9375    0.0709 H         1 ACP         0.4344
     43 H1'        -0.1998   -1.6319    2.6178 H         1 ACP         0.1127
     44 H8         -0.9745   -3.6312    1.2318 H         1 ACP         0.1050
     45 HN61       -5.2619   -3.7766   -0.9586 H         1 ACP         0.4211
     46 HN62       -6.4834   -2.5990   -1.3590 H         1 ACP         0.4211
     47 H2         -4.8317    1.4071    0.1930 H         1 ACP         0.0375
@<TRIPOS>BOND
     1    1    2 2
     2    1    3 1
     3    1    4 1
     4    1    8 1
     5    4   32 1
     6    5    6 2
     7    5    7 1
     8    5    8 1
     9    5   12 1
    10    7   33 1
    11    8   34 1
    12    8   35 1
    13    9   10 2
    14    9   11 1
    15    9   12 1
    16    9   13 1
    17   13   14 1
    18   14   15 1
    19   14   36 1
    20   14   37 1
    21   15   16 1
    22   15   17 1
    23   15   38 1
    24   16   21 1
    25   17   18 1
    26   17   19 1
    27   17   39 1
    28   18   40 1
    29   19   20 1
    30   19   21 1
    31   19   41 1
    32   20   42 1
    33   21   22 1
    34   21   43 1
    35   22   23 ar
    36   22   31 ar
    37   23   24 ar
    38   23   44 1
    39   24   25 ar
    40   25   26 ar
    41   25   31 ar
    42   26   27 1
    43   26   28 ar
    44   27   45 1
    45   27   46 1
    46   28   29 ar
    47   29   30 ar
    48   29   47 1
    49   30   31 ar
@<TRIPOS>SUBSTRUCTURE
     1 ACP         1 GROUP 0 A     ****
@<TRIPOS>MOLECULE
[[[5-(6-aminopurin-9-yl)-3,4-dihydroxy-tetrahydrofuran-2-yl]methoxy-oxido-phosphoryl]oxy-hydroxy-phosphoryl]methyl-hydroxy-phosphinate
   47    49     1     0     0
SMALL
USER_CHARGES

@<TRIPOS>ATOM
      1 PG         -5.0708    4.2148    0.2068 P.3       1 ACP         1.3516
      2 O1G        -6.4911    4.3597    0.7018 O.co2     1 ACP        -0.8379
      3 O2G        -4.0904    3.2540    0.8389 O.co2     1 ACP        -0.8379
      4 O3G        -5.0801    3.9936   -1.4090 O.3       1 ACP        -0.7980
      5 PB         -2.5995    6.2208   -0.2650 P.3       1 ACP         1.7688
      6 O1B        -2.1718    7.6540   -0.1594 O.2       1 ACP        -0.9167
      7 O2B        -2.5166    5.5954   -1.7528 O.3       1 ACP        -0.8201
      8 C3B        -4.3016    5.8959    0.2422 C.3       1 ACP        -0.6097
      9 PA         -0.1841    4.7791    0.6529 P.3       1 ACP         1.5979
     10 O1A         0.5954    5.9768    1.1506 O.co2     1 ACP        -0.8617
     11 O2A         0.1742    4.1138   -0.6581 O.co2     1 ACP        -0.8617
     12 O3A        -1.7686    5.1698    0.6355 O.3       1 ACP        -0.8283
     13 O5'        -0.2060    3.6558    1.8418 O.3       1 ACP        -0.5783
     14 C5'        -0.8811    2.4285    1.6206 C.3       1 ACP         0.1980
     15 C4'        -0.1994    1.3333    2.4288 C.3       1 ACP         0.0815
     16 O4'        -1.1285    0.2356    2.5840 O.3       1 ACP        -0.4127
     17 C3'         1.0324    0.7610    1.7344 C.3       1 ACP         0.0890
     18 O3'         1.9175    0.2377    2.7247 O.3       1 ACP        -0.6221
     19 C2'         0.4468   -0.3802    0.9263 C.3       1 ACP         0.1067
     20 O2'         1.3993   -1.3703    0.5961 O.3       1 ACP        -0.6053
     21 C1'        -0.6159   -0.9100    1.8769 C.3       1 ACP         0.4223
     22 N9         -1.7127   -1.6108    1.2130 N.pl3     1 ACP        -0.6834
     23 C8         -2.0877   -2.9101    1.4304 C.ar      1 ACP         0.5614
     24 N7         -3.1152   -3.2613    0.6857 N.2       1 ACP        -0.5751
     25 C5         -3.4186   -2.1409   -0.0462 C.ar      1 ACP        -0.2117
     26 C6         -4.3953   -1.8809   -1.0023 C.ar      1 ACP         0.7177
     27 N6         -5.3118   -2.8767   -1.3812 N.pl3     1 ACP        -0.9401
     28 N1         -4.4538   -0.6507   -1.5667 N.ar      1 ACP        -0.8008
     29 C2         -3.5442    0.2679   -1.1609 C.ar      1 ACP         0.6565
     30 N3         -2.5561    0.1361   -0.2491 N.ar      1 ACP        -0.7061
     31 C4         -2.5568   -1.1019    0.2674 C.ar      1 ACP         0.5715
     32 HOG3       -5.5534    3.2147   -1.7718 H         1 ACP         0.4226
     33 HOB2       -1.6488    5.5686   -2.2092 H         1 ACP         0.4482
     34 H3B1       -4.9547    6.5399   -0.3575 H         1 ACP         0.1012
     35 H3B2       -4.3932    6.2266    1.2823 H         1 ACP         0.1012
     36 H5'1       -1.9255    2.5382    1.9294 H         1 ACP         0.0481
     37 H5'2       -0.8473    2.1933    0.5521 H         1 ACP         0.0481
     38 H4'         0.0403    1.7078    3.4343 H         1 ACP         0.0904
     39 H3'         1.5906    1.4859    1.1353 H         1 ACP         0.0809
     40 HO3'        2.6839   -0.1150    2.2479 H         1 ACP         0.4528
     41 H2'        -0.0017    0.0018    0.0005 H         1 ACP         0.0594
     42 HO2'        2.0953   -0.9375    0.0709 H         1 ACP         0.4344
     43 H1'        -0.1998   -1.6319    2.6178 H         1 ACP         0.1127
     44 H8         -1.5778   -3.5473    2.1399 H         1 ACP         0.1050
     45 HN61       -5.2294   -3.7965   -0.9914 H         1 ACP         0.4211
     46 HN62       -5.9774   -2.6837   -2.1055 H         1 ACP         0.4211
     47 H2         -3.6201    1.2414   -1.6336 H         1 ACP         0.0375
@<TRIPOS>BOND
     1    1    2 2
     2    1    3 1
     3    1    4 1
     4    1    8 1
     5    4   32 1
     6    5    6 2
     7    5    7 1
     8    5    8 1
     9    5   12 1
    10    7   33 1
    11    8   34 1
    12    8   35 1
    13    9   10 2
    14    9   11 1
    15    9   12 1
    16    9   13 1
    17   13   14 1
    18   14   15 1
    19   14   36 1
    20   14   37 1
    21   15   16 1
    22   15   17 1
    23   15   38 1
    24   16   21 1
    25   17   18 1
    26   17   19 1
    27   17   39 1
    28   18   40 1
    29   19   20 1
    30   19   21 1
    31   19   41 1
    32   20   42 1
    33   21   22 1
    34   21   43 1
    35   22   23 ar
    36   22   31 ar
    37   23   24 ar
    38   23   44 1
    39   24   25 ar
    40   25   26 ar
    41   25   31 ar
    42   26   27 1
    43   26   28 ar
    44   27   45 1
    45   27   46 1
    46   28   29 ar
    47   29   30 ar
    48   29   47 1
    49   30   31 ar
@<TRIPOS>SUBSTRUCTURE
     1 ACP         1 GROUP 0 A     ****
@<TRIPOS>MOLECULE
[[[5-(6-aminopurin-9-yl)-3,4-dihydroxy-tetrahydrofuran-2-yl]methoxy-oxido-phosphoryl]oxy-hydroxy-phosphoryl]methyl-hydroxy-phosphinate
   47    49     1     0     0
SMALL
USER_CHARGES

@<TRIPOS>ATOM
      1 PG         -0.3699    7.1539   -0.5035 P.3       1 ACP         1.3516
      2 O1G         0.2741    5.9521    0.1477 O.co2     1 ACP        -0.8379
      3 O2G         0.2740    8.5210   -0.4890 O.co2     1 ACP        -0.8379
      4 O3G        -0.8033    6.7758   -2.0297 O.3       1 ACP        -0.7980
      5 PB         -3.3325    6.0522    0.0996 P.3       1 ACP         1.7688
      6 O1B        -3.7277    5.6835   -1.2989 O.2       1 ACP        -0.9167
      7 O2B        -4.5353    6.6195    1.0179 O.3       1 ACP        -0.8201
      8 C3B        -2.0628    7.3302    0.2192 C.3       1 ACP        -0.6097
      9 PA         -3.3165    3.4234    1.4577 P.3       1 ACP         1.5979
     10 O1A        -3.4792    2.5547    0.2293 O.co2     1 ACP        -0.8617
     11 O2A        -4.4804    3.6637    2.3942 O.co2     1 ACP        -0.8617
     12 O3A        -2.7035    4.8620    0.9906 O.3       1 ACP        -0.8283
     13 O5'        -2.0402    2.8619    2.3131 O.3       1 ACP        -0.5783
     14 C5'        -0.8811    2.4285    1.6206 C.3       1 ACP         0.1980
     15 C4'        -0.1994    1.3333    2.4288 C.3       1 ACP         0.0815
     16 O4'        -1.1285    0.2356    2.5840 O.3       1 ACP        -0.4127
     17 C3'         1.0324    0.7610    1.7344 C.3       1 ACP         0.0890
     18 O3'         1.9175    0.2377    2.7247 O.3       1 ACP        -0.6221
     19 C2'         0.4468   -0.3802    0.9263 C.3       1 ACP         0.1067
     20 O2'         1.3993   -1.3703    0.5961 O.3       1 ACP        -0.6053
     21 C1'        -0.6159   -0.9100    1.8769 C.3       1 ACP         0.4223
     22 N9         -1.7127   -1.6108    1.2130 N.pl3     1 ACP        -0.6834
     23 C8         -2.8641   -1.0399    0.7392 C.ar      1 ACP         0.5614
     24 N7         -3.6659   -1.9257    0.1858 N.2       1 ACP        -0.5751
     25 C5         -3.0053   -3.1223    0.3069 C.ar      1 ACP        -0.2117
     26 C6         -3.3321   -4.4178   -0.0813 C.ar      1 ACP         0.7177
     27 N6         -4.5476   -4.6866   -0.7335 N.pl3     1 ACP        -0.9401
     28 N1         -2.4608   -5.4225    0.1773 N.ar      1 ACP        -0.8008
     29 C2         -1.3053   -5.1020    0.8081 C.ar      1 ACP         0.6565
     30 N3         -0.8788   -3.8921    1.2315 N.ar      1 ACP        -0.7061
     31 C4         -1.7870   -2.9477    0.9438 C.ar      1 ACP         0.5715
     32 HOG3       -0.1048    6.4937   -2.6581 H         1 ACP         0.4226
     33 HOB2       -5.3150    6.0485    1.1853 H         1 ACP         0.4482
     34 H3B1       -1.9160    7.5530    1.2821 H         1 ACP         0.1012
     35 H3B2       -2.4747    8.2335   -0.2434 H         1 ACP         0.1012
     36 H5'1       -1.1770    2.0503    0.6369 H         1 ACP         0.0481
     37 H5'2       -0.2082    3.2815    1.4877 H         1 ACP         0.0481
     38 H4'         0.0403    1.7078    3.4343 H         1 ACP         0.0904
     39 H3'         1.5906    1.4859    1.1353 H         1 ACP         0.0809
     40 HO3'        2.1521    0.9800    3.3017 H         1 ACP         0.4528
     41 H2'        -0.0017    0.0018    0.0005 H         1 ACP         0.0594
     42 HO2'        0.9369   -2.0558    0.0825 H         1 ACP         0.4344
     43 H1'        -0.1998   -1.6319    2.6178 H         1 ACP         0.1127
     44 H8         -3.0609    0.0200    0.8250 H         1 ACP         0.1050
     45 HN61       -5.2046   -3.9433   -0.8775 H         1 ACP         0.4211
     46 HN62       -4.7849   -5.6332   -0.9625 H         1 ACP         0.4211
     47 H2         -0.6318   -5.9307    0.9993 H         1 ACP         0.0375
@<TRIPOS>BOND
     1    1    2 2
     2    1    3 1
     3    1    4 1
     4    1    8 1
     5    4   32 1
     6    5    6 2
     7    5    7 1
     8    5    8 1
     9    5   12 1
    10    7   33 1
    11    8   34 1
    12    8   35 1
    13    9   10 2
    14    9   11 1
    15    9   12 1
    16    9   13 1
    17   13   14 1
    18   14   15 1
    19   14   36 1
    20   14   37 1
    21   15   16 1
    22   15   17 1
    23   15   38 1
    24   16   21 1
    25   17   18 1
    26   17   19 1
    27   17   39 1
    28   18   40 1
    29   19   20 1
    30   19   21 1
    31   19   41 1
    32   20   42 1
    33   21   22 1
    34   21   43 1
    35   22   23 ar
    36   22   31 ar
    37   23   24 ar
    38   23   44 1
    39   24   25 ar
    40   25   26 ar
    41   25   31 ar
    42   26   27 1
    43   26   28 ar
    44   27   45 1
    45   27   46 1
    46   28   29 ar
    47   29   30 ar
    48   29   47 1
    49   30   31 ar
@<TRIPOS>SUBSTRUCTURE
     1 ACP         1 GROUP 0 A     ****
@<TRIPOS>MOLECULE
[[[5-(6-aminopurin-9-yl)-3,4-dihydroxy-tetrahydrofuran-2-yl]methoxy-oxido-phosphoryl]oxy-hydroxy-phosphoryl]methyl-hydroxy-phosphinate
   47    49     1     0     0
SMALL
USER_CHARGES

@<TRIPOS>ATOM
      1 PG          8.2717    3.1281   -4.2487 P.3       1 ACP         1.3516
      2 O1G         8.5239    2.4107   -5.5545 O.co2     1 ACP        -0.8379
      3 O2G         8.8525    2.6474   -2.9390 O.co2     1 ACP        -0.8379
      4 O3G         8.5926    4.7166   -4.4326 O.3       1 ACP        -0.7980
      5 PB          5.6565    4.0326   -2.6065 P.3       1 ACP         1.7688
      6 O1B         4.1573    4.0238   -2.6251 O.2       1 ACP        -0.9167
      7 O2B         6.3264    5.5026   -2.5612 O.3       1 ACP        -0.8201
      8 C3B         6.4393    3.2488   -4.0322 C.3       1 ACP        -0.6097
      9 PA          6.2488    3.4955    0.2423 P.3       1 ACP         1.5979
     10 O1A         6.5597    4.9479    0.5318 O.co2     1 ACP        -0.8617
     11 O2A         6.9993    2.3884    0.9499 O.co2     1 ACP        -0.8617
     12 O3A         6.3499    3.2611   -1.3696 O.3       1 ACP        -0.8283
     13 O5'         4.6405    3.2701    0.4379 O.3       1 ACP        -0.5783
     14 C5'         4.0922    1.9801    0.2227 C.3       1 ACP         0.1980
     15 C4'         2.5944    2.0310    0.4653 C.3       1 ACP         0.0815
     16 O4'         1.9327    2.5740   -0.6889 O.3       1 ACP        -0.4127
     17 C3'         1.9685    0.6634    0.6767 C.3       1 ACP         0.0890
     18 O3'         2.1425    0.1975    1.9977 O.3       1 ACP        -0.6221
     19 C2'         0.5176    0.9128    0.3099 C.3       1 ACP         0.1067
     20 O2'        -0.2103    1.4454    1.4152 O.3       1 ACP        -0.6053
     21 C1'         0.6219    1.9765   -0.7844 C.3       1 ACP         0.4223
     22 N9          0.4237    1.4496   -2.1357 N.pl3     1 ACP        -0.6834
     23 C8         -0.7736    1.3475   -2.7932 C.ar      1 ACP         0.5614
     24 N7         -0.6356    0.8373   -3.9991 N.2       1 ACP        -0.5751
     25 C5          0.7095    0.5981   -4.1281 C.ar      1 ACP        -0.2117
     26 C6          1.4733    0.0704   -5.1643 C.ar      1 ACP         0.7177
     27 N6          0.8693   -0.3355   -6.3666 N.pl3     1 ACP        -0.9401
     28 N1          2.8130   -0.0482   -5.0009 N.ar      1 ACP        -0.8008
     29 C2          3.3380    0.3602   -3.8204 C.ar      1 ACP         0.6565
     30 N3          2.7052    0.8841   -2.7480 N.ar      1 ACP        -0.7061
     31 C4          1.3867    0.9726   -2.9785 C.ar      1 ACP         0.5715
     32 HOG3        9.4994    4.9833   -4.6947 H         1 ACP         0.4226
     33 HOB2        6.1238    6.0938   -1.8053 H         1 ACP         0.4482
     34 H3B1        6.0606    3.7453   -4.9327 H         1 ACP         0.1012
     35 H3B2        6.0825    2.2137   -4.0631 H         1 ACP         0.1012
     36 H5'1        4.3030    1.6731   -0.8066 H         1 ACP         0.0481
     37 H5'2        4.5679    1.2740    0.9106 H         1 ACP         0.0481
     38 H4'         2.3751    2.7029    1.3156 H         1 ACP         0.0904
     39 H3'         2.4336   -0.1217   -0.0015 H         1 ACP         0.0809
     40 HO3'        1.7160   -0.6716    2.0397 H         1 ACP         0.4528
     41 H2'         0.0316    0.0155   -0.0339 H         1 ACP         0.0594
     42 HO2'       -0.1608    0.7921    2.1351 H         1 ACP         0.4344
     43 H1'        -0.1474    2.7798   -0.6651 H         1 ACP         0.1127
     44 H8         -1.7070    1.6599   -2.3451 H         1 ACP         0.1050
     45 HN61       -0.1277   -0.2866   -6.4583 H         1 ACP         0.4211
     46 HN62        1.4308   -0.7566   -7.0823 H         1 ACP         0.4211
     47 H2          4.4130    0.2505   -3.7241 H         1 ACP         0.0375
@<TRIPOS>BOND
     1    1    2 2
     2    1    3 1
     3    1    4 1
     4    1    8 1
     5    4   32 1
     6    5    6 2
     7    5    7 1
     8    5    8 1
     9    5   12 1
    10    7   33 1
    11    8   34 1
    12    8   35 1
    13    9   10 2
    14    9   11 1
    15    9   12 1
    16    9   13 1
    17   13   14 1
    18   14   15 1
    19   14   36 1
    20   14   37 1
    21   15   16 1
    22   15   17 1
    23   15   38 1
    24   16   21 1
    25   17   18 1
    26   17   19 1
    27   17   39 1
    28   18   40 1
    29   19   20 1
    30   19   21 1
    31   19   41 1
    32   20   42 1
    33   21   22 1
    34   21   43 1
    35   22   23 ar
    36   22   31 ar
    37   23   24 ar
    38   23   44 1
    39   24   25 ar
    40   25   26 ar
    41   25   31 ar
    42   26   27 1
    43   26   28 ar
    44   27   45 1
    45   27   46 1
    46   28   29 ar
    47   29   30 ar
    48   29   47 1
    49   30   31 ar
@<TRIPOS>SUBSTRUCTURE
     1 ACP         1 GROUP 0 A     ****
@<TRIPOS>MOLECULE
[[[5-(6-aminopurin-9-yl)-3,4-dihydroxy-tetrahydrofuran-2-yl]methoxy-oxido-phosphoryl]oxy-hydroxy-phosphoryl]methyl-hydroxy-phosphinate
   47    49     1     0     0
SMALL
USER_CHARGES

@<TRIPOS>ATOM
      1 PG         -5.3039    4.6989    0.1762 P.3       1 ACP         1.3516
      2 O1G        -4.4455    3.9425   -0.8110 O.co2     1 ACP        -0.8379
      3 O2G        -6.6387    5.2950   -0.2066 O.co2     1 ACP        -0.8379
      4 O3G        -5.4762    3.8128    1.5345 O.3       1 ACP        -0.7980
      5 PB         -2.7313    5.7774    1.7801 P.3       1 ACP         1.7688
      6 O1B        -2.8736    4.9497    3.0222 O.2       1 ACP        -0.9167
      7 O2B        -2.1462    7.2648    2.0188 O.3       1 ACP        -0.8201
      8 C3B        -4.2677    6.0614    0.8753 C.3       1 ACP        -0.6097
      9 PA         -0.1841    4.7791    0.6529 P.3       1 ACP         1.5979
     10 O1A         0.5954    5.9768    1.1506 O.co2     1 ACP        -0.8617
     11 O2A         0.1742    4.1138   -0.6581 O.co2     1 ACP        -0.8617
     12 O3A        -1.7686    5.1698    0.6355 O.3       1 ACP        -0.8283
     13 O5'        -0.2060    3.6558    1.8418 O.3       1 ACP        -0.5783
     14 C5'        -0.8811    2.4285    1.6206 C.3       1 ACP         0.1980
     15 C4'        -0.1994    1.3333    2.4288 C.3       1 ACP         0.0815
     16 O4'        -1.1285    0.2356    2.5840 O.3       1 ACP        -0.4127
     17 C3'         1.0324    0.7610    1.7344 C.3       1 ACP         0.0890
     18 O3'         1.9175    0.2377    2.7247 O.3       1 ACP        -0.6221
     19 C2'         0.4468   -0.3802    0.9263 C.3       1 ACP         0.1067
     20 O2'         1.3993   -1.3703    0.5961 O.3       1 ACP        -0.6053
     21 C1'        -0.6159   -0.9100    1.8769 C.3       1 ACP         0.4223
     22 N9         -1.7127   -1.6108    1.2130 N.pl3     1 ACP        -0.6834
     23 C8         -1.7712   -2.9546    0.9544 C.ar      1 ACP         0.5614
     24 N7         -2.8883   -3.2948    0.3462 N.2       1 ACP        -0.5751
     25 C5         -3.5834   -2.1202    0.2043 C.ar      1 ACP        -0.2117
     26 C6         -4.8225   -1.8251   -0.3554 C.ar      1 ACP         0.7177
     27 N6         -5.6154   -2.8395   -0.9189 N.pl3     1 ACP        -0.9401
     28 N1         -5.2589   -0.5425   -0.3507 N.ar      1 ACP        -0.8008
     29 C2         -4.4510    0.3913    0.2069 C.ar      1 ACP         0.6565
     30 N3         -3.2368    0.2296    0.7767 N.ar      1 ACP        -0.7061
     31 C4         -2.8684   -1.0596    0.7376 C.ar      1 ACP         0.5715
     32 HOG3       -5.8931    2.9275    1.4658 H         1 ACP         0.4226
     33 HOB2       -1.2560    7.3667    2.4178 H         1 ACP         0.4482
     34 H3B1       -4.0397    6.7288    0.0365 H         1 ACP         0.1012
     35 H3B2       -4.9371    6.6090    1.5474 H         1 ACP         0.1012
     36 H5'1       -1.9255    2.5382    1.9294 H         1 ACP         0.0481
     37 H5'2       -0.8473    2.1933    0.5521 H         1 ACP         0.0481
     38 H4'         0.0403    1.7078    3.4343 H         1 ACP         0.0904
     39 H3'         1.5906    1.4859    1.1353 H         1 ACP         0.0809
     40 HO3'        2.6839   -0.1150    2.2479 H         1 ACP         0.4528
     41 H2'        -0.0017    0.0018    0.0005 H         1 ACP         0.0594
     42 HO2'        2.0953   -0.9375    0.0709 H         1 ACP         0.4344
     43 H1'        -0.1998   -1.6319    2.6178 H         1 ACP         0.1127
     44 H8         -0.9745   -3.6312    1.2318 H         1 ACP         0.1050
     45 HN61       -5.2619   -3.7766   -0.9586 H         1 ACP         0.4211
     46 HN62       -6.4834   -2.5990   -1.3590 H         1 ACP         0.4211
     47 H2         -4.8317    1.4071    0.1930 H         1 ACP         0.0375
@<TRIPOS>BOND
     1    1    2 2
     2    1    3 1
     3    1    4 1
     4    1    8 1
     5    4   32 1
     6    5    6 2
     7    5    7 1
     8    5    8 1
     9    5   12 1
    10    7   33 1
    11    8   34 1
    12    8   35 1
    13    9   10 2
    14    9   11 1
    15    9   12 1
    16    9   13 1
    17   13   14 1
    18   14   15 1
    19   14   36 1
    20   14   37 1
    21   15   16 1
    22   15   17 1
    23   15   38 1
    24   16   21 1
    25   17   18 1
    26   17   19 1
    27   17   39 1
    28   18   40 1
    29   19   20 1
    30   19   21 1
    31   19   41 1
    32   20   42 1
    33   21   22 1
    34   21   43 1
    35   22   23 ar
    36   22   31 ar
    37   23   24 ar
    38   23   44 1
    39   24   25 ar
    40   25   26 ar
    41   25   31 ar
    42   26   27 1
    43   26   28 ar
    44   27   45 1
    45   27   46 1
    46   28   29 ar
    47   29   30 ar
    48   29   47 1
    49   30   31 ar
@<TRIPOS>SUBSTRUCTURE
     1 ACP         1 GROUP 0 A     ****
@<TRIPOS>MOLECULE
[[[5-(6-aminopurin-9-yl)-3,4-dihydroxy-tetrahydrofuran-2-yl]methoxy-oxido-phosphoryl]oxy-hydroxy-phosphoryl]methyl-hydroxy-phosphinate
   47    49     1     0     0
SMALL
USER_CHARGES

@<TRIPOS>ATOM
      1 PG         -0.8038    6.0873   -1.2491 P.3       1 ACP         1.3516
      2 O1G        -1.1611    6.2883   -2.7035 O.co2     1 ACP        -0.8379
      3 O2G        -0.5390    4.7188   -0.6652 O.co2     1 ACP        -0.8379
      4 O3G         0.4157    7.0927   -0.8468 O.3       1 ACP        -0.7980
      5 PB         -2.1462    6.8838    1.5647 P.3       1 ACP         1.7688
      6 O1B        -3.3230    7.5729    2.1880 O.2       1 ACP        -0.9167
      7 O2B        -0.7086    7.5145    1.9484 O.3       1 ACP        -0.8201
      8 C3B        -2.1406    6.8716   -0.2407 C.3       1 ACP        -0.6097
      9 PA         -2.9650    4.0420    1.6588 P.3       1 ACP         1.5979
     10 O1A        -3.0500    3.8015    0.1672 O.co2     1 ACP        -0.8617
     11 O2A        -4.2197    4.2123    2.4872 O.co2     1 ACP        -0.8617
     12 O3A        -1.9798    5.3173    1.9171 O.3       1 ACP        -0.8283
     13 O5'        -2.0402    2.8619    2.3131 O.3       1 ACP        -0.5783
     14 C5'        -0.8811    2.4285    1.6206 C.3       1 ACP         0.1980
     15 C4'        -0.1994    1.3333    2.4288 C.3       1 ACP         0.0815
     16 O4'        -1.1285    0.2356    2.5840 O.3       1 ACP        -0.4127
     17 C3'         1.0324    0.7610    1.7344 C.3       1 ACP         0.0890
     18 O3'         1.9175    0.2377    2.7247 O.3       1 ACP        -0.6221
     19 C2'         0.4468   -0.3802    0.9263 C.3       1 ACP         0.1067
     20 O2'         1.3993   -1.3703    0.5961 O.3       1 ACP        -0.6053
     21 C1'        -0.6159   -0.9100    1.8769 C.3       1 ACP         0.4223
     22 N9         -1.7127   -1.6108    1.2130 N.pl3     1 ACP        -0.6834
     23 C8         -2.8641   -1.0399    0.7392 C.ar      1 ACP         0.5614
     24 N7         -3.6659   -1.9257    0.1858 N.2       1 ACP        -0.5751
     25 C5         -3.0053   -3.1223    0.3069 C.ar      1 ACP        -0.2117
     26 C6         -3.3321   -4.4178   -0.0813 C.ar      1 ACP         0.7177
     27 N6         -4.5476   -4.6866   -0.7335 N.pl3     1 ACP        -0.9401
     28 N1         -2.4608   -5.4225    0.1773 N.ar      1 ACP        -0.8008
     29 C2         -1.3053   -5.1020    0.8081 C.ar      1 ACP         0.6565
     30 N3         -0.8788   -3.8921    1.2315 N.ar      1 ACP        -0.7061
     31 C4         -1.7870   -2.9477    0.9438 C.ar      1 ACP         0.5715
     32 HOG3        1.2667    7.0119   -1.3281 H         1 ACP         0.4226
     33 HOB2       -0.4370    7.5393    2.8906 H         1 ACP         0.4482
     34 H3B1       -2.2039    7.9119   -0.5793 H         1 ACP         0.1012
     35 H3B2       -3.0632    6.3746   -0.5592 H         1 ACP         0.1012
     36 H5'1       -1.1770    2.0503    0.6369 H         1 ACP         0.0481
     37 H5'2       -0.2082    3.2815    1.4877 H         1 ACP         0.0481
     38 H4'         0.0403    1.7078    3.4343 H         1 ACP         0.0904
     39 H3'         1.5906    1.4859    1.1353 H         1 ACP         0.0809
     40 HO3'        2.6839   -0.1150    2.2479 H         1 ACP         0.4528
     41 H2'        -0.0017    0.0018    0.0005 H         1 ACP         0.0594
     42 HO2'        2.0953   -0.9375    0.0709 H         1 ACP         0.4344
     43 H1'        -0.1998   -1.6319    2.6178 H         1 ACP         0.1127
     44 H8         -3.0609    0.0200    0.8250 H         1 ACP         0.1050
     45 HN61       -5.2046   -3.9433   -0.8775 H         1 ACP         0.4211
     46 HN62       -4.7849   -5.6332   -0.9625 H         1 ACP         0.4211
     47 H2         -0.6318   -5.9307    0.9993 H         1 ACP         0.0375
@<TRIPOS>BOND
     1    1    2 2
     2    1    3 1
     3    1    4 1
     4    1    8 1
     5    4   32 1
     6    5    6 2
     7    5    7 1
     8    5    8 1
     9    5   12 1
    10    7   33 1
    11    8   34 1
    12    8   35 1
    13    9   10 2
    14    9   11 1
    15    9   12 1
    16    9   13 1
    17   13   14 1
    18   14   15 1
    19   14   36 1
    20   14   37 1
    21   15   16 1
    22   15   17 1
    23   15   38 1
    24   16   21 1
    25   17   18 1
    26   17   19 1
    27   17   39 1
    28   18   40 1
    29   19   20 1
    30   19   21 1
    31   19   41 1
    32   20   42 1
    33   21   22 1
    34   21   43 1
    35   22   23 ar
    36   22   31 ar
    37   23   24 ar
    38   23   44 1
    39   24   25 ar
    40   25   26 ar
    41   25   31 ar
    42   26   27 1
    43   26   28 ar
    44   27   45 1
    45   27   46 1
    46   28   29 ar
    47   29   30 ar
    48   29   47 1
    49   30   31 ar
@<TRIPOS>SUBSTRUCTURE
     1 ACP         1 GROUP 0 A     ****
@<TRIPOS>MOLECULE
[[[5-(6-aminopurin-9-yl)-3,4-dihydroxy-tetrahydrofuran-2-yl]methoxy-oxido-phosphoryl]oxy-hydroxy-phosphoryl]methyl-hydroxy-phosphinate
   47    49     1     0     0
SMALL
USER_CHARGES

@<TRIPOS>ATOM
      1 PG          1.2723    6.5470    0.1703 P.3       1 ACP         1.3516
      2 O1G         1.3586    5.0890    0.5576 O.co2     1 ACP        -0.8379
      3 O2G         2.4224    7.5056    0.3757 O.co2     1 ACP        -0.8379
      4 O3G         0.7333    6.6690   -1.3642 O.3       1 ACP        -0.7980
      5 PB         -1.8855    6.6530    0.7797 P.3       1 ACP         1.7688
      6 O1B        -2.3868    6.7440   -0.6304 O.2       1 ACP        -0.9167
      7 O2B        -2.7544    7.4783    1.8639 O.3       1 ACP        -0.8201
      8 C3B        -0.2028    7.2580    1.0292 C.3       1 ACP        -0.6097
      9 PA         -2.9650    4.0420    1.6588 P.3       1 ACP         1.5979
     10 O1A        -3.4619    3.5597    0.3133 O.co2     1 ACP        -0.8617
     11 O2A        -3.9334    4.5556    2.7019 O.co2     1 ACP        -0.8617
     12 O3A        -1.8099    5.1668    1.4056 O.3       1 ACP        -0.8283
     13 O5'        -2.0402    2.8619    2.3131 O.3       1 ACP        -0.5783
     14 C5'        -0.8811    2.4285    1.6206 C.3       1 ACP         0.1980
     15 C4'        -0.1994    1.3333    2.4288 C.3       1 ACP         0.0815
     16 O4'        -1.1285    0.2356    2.5840 O.3       1 ACP        -0.4127
     17 C3'         1.0324    0.7610    1.7344 C.3       1 ACP         0.0890
     18 O3'         1.9175    0.2377    2.7247 O.3       1 ACP        -0.6221
     19 C2'         0.4468   -0.3802    0.9263 C.3       1 ACP         0.1067
     20 O2'         1.3993   -1.3703    0.5961 O.3       1 ACP        -0.6053
     21 C1'        -0.6159   -0.9100    1.8769 C.3       1 ACP         0.4223
     22 N9         -1.7127   -1.6108    1.2130 N.pl3     1 ACP        -0.6834
     23 C8         -2.0877   -2.9101    1.4304 C.ar      1 ACP         0.5614
     24 N7         -3.1152   -3.2613    0.6857 N.2       1 ACP        -0.5751
     25 C5         -3.4186   -2.1409   -0.0462 C.ar      1 ACP        -0.2117
     26 C6         -4.3953   -1.8809   -1.0023 C.ar      1 ACP         0.7177
     27 N6         -5.3118   -2.8767   -1.3812 N.pl3     1 ACP        -0.9401
     28 N1         -4.4538   -0.6507   -1.5667 N.ar      1 ACP        -0.8008
     29 C2         -3.5442    0.2679   -1.1609 C.ar      1 ACP         0.6565
     30 N3         -2.5561    0.1361   -0.2491 N.ar      1 ACP        -0.7061
     31 C4         -2.5568   -1.1019    0.2674 C.ar      1 ACP         0.5715
     32 HOG3        1.2582    6.2498   -2.0791 H         1 ACP         0.4226
     33 HOB2       -3.7015    7.2531    1.9842 H         1 ACP         0.4482
     34 H3B1        0.0146    7.1999    2.1017 H         1 ACP         0.1012
     35 H3B2       -0.2023    8.3196    0.7594 H         1 ACP         0.1012
     36 H5'1       -1.1770    2.0503    0.6369 H         1 ACP         0.0481
     37 H5'2       -0.2082    3.2815    1.4877 H         1 ACP         0.0481
     38 H4'         0.0403    1.7078    3.4343 H         1 ACP         0.0904
     39 H3'         1.5906    1.4859    1.1353 H         1 ACP         0.0809
     40 HO3'        2.6839   -0.1150    2.2479 H         1 ACP         0.4528
     41 H2'        -0.0017    0.0018    0.0005 H         1 ACP         0.0594
     42 HO2'        2.0953   -0.9375    0.0709 H         1 ACP         0.4344
     43 H1'        -0.1998   -1.6319    2.6178 H         1 ACP         0.1127
     44 H8         -1.5778   -3.5473    2.1399 H         1 ACP         0.1050
     45 HN61       -5.2294   -3.7965   -0.9914 H         1 ACP         0.4211
     46 HN62       -5.9774   -2.6837   -2.1055 H         1 ACP         0.4211
     47 H2         -3.6201    1.2414   -1.6336 H         1 ACP         0.0375
@<TRIPOS>BOND
     1    1    2 2
     2    1    3 1
     3    1    4 1
     4    1    8 1
     5    4   32 1
     6    5    6 2
     7    5    7 1
     8    5    8 1
     9    5   12 1
    10    7   33 1
    11    8   34 1
    12    8   35 1
    13    9   10 2
    14    9   11 1
    15    9   12 1
    16    9   13 1
    17   13   14 1
    18   14   15 1
    19   14   36 1
    20   14   37 1
    21   15   16 1
    22   15   17 1
    23   15   38 1
    24   16   21 1
    25   17   18 1
    26   17   19 1
    27   17   39 1
    28   18   40 1
    29   19   20 1
    30   19   21 1
    31   19   41 1
    32   20   42 1
    33   21   22 1
    34   21   43 1
    35   22   23 ar
    36   22   31 ar
    37   23   24 ar
    38   23   44 1
    39   24   25 ar
    40   25   26 ar
    41   25   31 ar
    42   26   27 1
    43   26   28 ar
    44   27   45 1
    45   27   46 1
    46   28   29 ar
    47   29   30 ar
    48   29   47 1
    49   30   31 ar
@<TRIPOS>SUBSTRUCTURE
     1 ACP         1 GROUP 0 A     ****
@<TRIPOS>MOLECULE
[[[5-(6-aminopurin-9-yl)-3,4-dihydroxy-tetrahydrofuran-2-yl]methoxy-oxido-phosphoryl]oxy-hydroxy-phosphoryl]methyl-hydroxy-phosphinate
   47    49     1     0     0
SMALL
USER_CHARGES

@<TRIPOS>ATOM
      1 PG          0.3291    7.1696   -0.0705 P.3       1 ACP         1.3516
      2 O1G         0.8358    8.5681   -0.3365 O.co2     1 ACP        -0.8379
      3 O2G         0.2865    6.1089   -1.1462 O.co2     1 ACP        -0.8379
      4 O3G         1.0676    6.5684    1.2535 O.3       1 ACP        -0.7980
      5 PB         -2.3911    5.9084    1.0974 P.3       1 ACP         1.7688
      6 O1B        -2.6918    4.9470   -0.0132 O.2       1 ACP        -0.9167
      7 O2B        -3.6906    6.5792    1.7852 O.3       1 ACP        -0.8201
      8 C3B        -1.3779    7.3255    0.6230 C.3       1 ACP        -0.6097
      9 PA         -1.9156    4.0919    3.3842 P.3       1 ACP         1.5979
     10 O1A        -3.2869    4.3461    3.9714 O.co2     1 ACP        -0.8617
     11 O2A        -0.7216    3.8543    4.2830 O.co2     1 ACP        -0.8617
     12 O3A        -1.5687    5.3044    2.3483 O.3       1 ACP        -0.8283
     13 O5'        -2.0402    2.8619    2.3131 O.3       1 ACP        -0.5783
     14 C5'        -0.8811    2.4285    1.6206 C.3       1 ACP         0.1980
     15 C4'        -0.1994    1.3333    2.4288 C.3       1 ACP         0.0815
     16 O4'        -1.1285    0.2356    2.5840 O.3       1 ACP        -0.4127
     17 C3'         1.0324    0.7610    1.7344 C.3       1 ACP         0.0890
     18 O3'         1.9175    0.2377    2.7247 O.3       1 ACP        -0.6221
     19 C2'         0.4468   -0.3802    0.9263 C.3       1 ACP         0.1067
     20 O2'         1.3993   -1.3703    0.5961 O.3       1 ACP        -0.6053
     21 C1'        -0.6159   -0.9100    1.8769 C.3       1 ACP         0.4223
     22 N9         -1.7127   -1.6108    1.2130 N.pl3     1 ACP        -0.6834
     23 C8         -1.7712   -2.9546    0.9544 C.ar      1 ACP         0.5614
     24 N7         -2.8883   -3.2948    0.3462 N.2       1 ACP        -0.5751
     25 C5         -3.5834   -2.1202    0.2043 C.ar      1 ACP        -0.2117
     26 C6         -4.8225   -1.8251   -0.3554 C.ar      1 ACP         0.7177
     27 N6         -5.6154   -2.8395   -0.9189 N.pl3     1 ACP        -0.9401
     28 N1         -5.2589   -0.5425   -0.3507 N.ar      1 ACP        -0.8008
     29 C2         -4.4510    0.3913    0.2069 C.ar      1 ACP         0.6565
     30 N3         -3.2368    0.2296    0.7767 N.ar      1 ACP        -0.7061
     31 C4         -2.8684   -1.0596    0.7376 C.ar      1 ACP         0.5715
     32 HOG3        2.0449    6.4844    1.2465 H         1 ACP         0.4226
     33 HOB2       -4.3554    5.9980    2.2121 H         1 ACP         0.4482
     34 H3B1       -1.2899    7.9779    1.4991 H         1 ACP         0.1012
     35 H3B2       -1.9410    7.8809   -0.1347 H         1 ACP         0.1012
     36 H5'1       -1.1770    2.0503    0.6369 H         1 ACP         0.0481
     37 H5'2       -0.2082    3.2815    1.4877 H         1 ACP         0.0481
     38 H4'         0.0403    1.7078    3.4343 H         1 ACP         0.0904
     39 H3'         1.5906    1.4859    1.1353 H         1 ACP         0.0809
     40 HO3'        2.6839   -0.1150    2.2479 H         1 ACP         0.4528
     41 H2'        -0.0017    0.0018    0.0005 H         1 ACP         0.0594
     42 HO2'        2.0953   -0.9375    0.0709 H         1 ACP         0.4344
     43 H1'        -0.1998   -1.6319    2.6178 H         1 ACP         0.1127
     44 H8         -0.9745   -3.6312    1.2318 H         1 ACP         0.1050
     45 HN61       -5.2619   -3.7766   -0.9586 H         1 ACP         0.4211
     46 HN62       -6.4834   -2.5990   -1.3590 H         1 ACP         0.4211
     47 H2         -4.8317    1.4071    0.1930 H         1 ACP         0.0375
@<TRIPOS>BOND
     1    1    2 2
     2    1    3 1
     3    1    4 1
     4    1    8 1
     5    4   32 1
     6    5    6 2
     7    5    7 1
     8    5    8 1
     9    5   12 1
    10    7   33 1
    11    8   34 1
    12    8   35 1
    13    9   10 2
    14    9   11 1
    15    9   12 1
    16    9   13 1
    17   13   14 1
    18   14   15 1
    19   14   36 1
    20   14   37 1
    21   15   16 1
    22   15   17 1
    23   15   38 1
    24   16   21 1
    25   17   18 1
    26   17   19 1
    27   17   39 1
    28   18   40 1
    29   19   20 1
    30   19   21 1
    31   19   41 1
    32   20   42 1
    33   21   22 1
    34   21   43 1
    35   22   23 ar
    36   22   31 ar
    37   23   24 ar
    38   23   44 1
    39   24   25 ar
    40   25   26 ar
    41   25   31 ar
    42   26   27 1
    43   26   28 ar
    44   27   45 1
    45   27   46 1
    46   28   29 ar
    47   29   30 ar
    48   29   47 1
    49   30   31 ar
@<TRIPOS>SUBSTRUCTURE
     1 ACP         1 GROUP 0 A     ****
@<TRIPOS>MOLECULE
[[[5-(6-aminopurin-9-yl)-3,4-dihydroxy-tetrahydrofuran-2-yl]methoxy-oxido-phosphoryl]oxy-hydroxy-phosphoryl]methyl-hydroxy-phosphinate
   47    49     1     0     0
SMALL
USER_CHARGES

@<TRIPOS>ATOM
      1 PG          2.6468    5.6949    3.5241 P.3       1 ACP         1.3516
      2 O1G         2.2754    6.5997    4.6760 O.co2     1 ACP        -0.8379
      3 O2G         4.0792    5.3191    3.2231 O.co2     1 ACP        -0.8379
      4 O3G         1.7331    4.3450    3.5792 O.3       1 ACP        -0.7980
      5 PB          0.1667    6.7235    1.7506 P.3       1 ACP         1.7688
      6 O1B        -0.2022    7.3363    0.4329 O.2       1 ACP        -0.9167
      7 O2B        -0.2595    7.5910    3.0459 O.3       1 ACP        -0.8201
      8 C3B         1.9335    6.4381    1.9886 C.3       1 ACP        -0.6097
      9 PA         -2.0038    4.7531    2.1525 P.3       1 ACP         1.5979
     10 O1A        -2.6311    4.8530    0.7790 O.co2     1 ACP        -0.8617
     11 O2A        -2.6593    5.4042    3.3509 O.co2     1 ACP        -0.8617
     12 O3A        -0.4577    5.2649    2.0483 O.3       1 ACP        -0.8283
     13 O5'        -1.7337    3.1724    2.4753 O.3       1 ACP        -0.5783
     14 C5'        -0.8811    2.4285    1.6206 C.3       1 ACP         0.1980
     15 C4'        -0.1994    1.3333    2.4288 C.3       1 ACP         0.0815
     16 O4'        -1.1285    0.2356    2.5840 O.3       1 ACP        -0.4127
     17 C3'         1.0324    0.7610    1.7344 C.3       1 ACP         0.0890
     18 O3'         1.9175    0.2377    2.7247 O.3       1 ACP        -0.6221
     19 C2'         0.4468   -0.3802    0.9263 C.3       1 ACP         0.1067
     20 O2'         1.3993   -1.3703    0.5961 O.3       1 ACP        -0.6053
     21 C1'        -0.6159   -0.9100    1.8769 C.3       1 ACP         0.4223
     22 N9         -1.7127   -1.6108    1.2130 N.pl3     1 ACP        -0.6834
     23 C8         -2.8641   -1.0399    0.7392 C.ar      1 ACP         0.5614
     24 N7         -3.6659   -1.9257    0.1858 N.2       1 ACP        -0.5751
     25 C5         -3.0053   -3.1223    0.3069 C.ar      1 ACP        -0.2117
     26 C6         -3.3321   -4.4178   -0.0813 C.ar      1 ACP         0.7177
     27 N6         -4.5476   -4.6866   -0.7335 N.pl3     1 ACP        -0.9401
     28 N1         -2.4608   -5.4225    0.1773 N.ar      1 ACP        -0.8008
     29 C2         -1.3053   -5.1020    0.8081 C.ar      1 ACP         0.6565
     30 N3         -0.8788   -3.8921    1.2315 N.ar      1 ACP        -0.7061
     31 C4         -1.7870   -2.9477    0.9438 C.ar      1 ACP         0.5715
     32 HOG3        1.7891    3.7744    4.3751 H         1 ACP         0.4226
     33 HOB2       -1.2081    7.7945    3.1901 H         1 ACP         0.4482
     34 H3B1        2.4456    7.3972    1.8508 H         1 ACP         0.1012
     35 H3B2        2.2625    5.7801    1.1772 H         1 ACP         0.1012
     36 H5'1       -1.4802    1.9928    0.8147 H         1 ACP         0.0481
     37 H5'2       -0.1369    3.1042    1.1873 H         1 ACP         0.0481
     38 H4'         0.0403    1.7078    3.4343 H         1 ACP         0.0904
     39 H3'         1.5906    1.4859    1.1353 H         1 ACP         0.0809
     40 HO3'        2.6839   -0.1150    2.2479 H         1 ACP         0.4528
     41 H2'        -0.0017    0.0018    0.0005 H         1 ACP         0.0594
     42 HO2'        2.0953   -0.9375    0.0709 H         1 ACP         0.4344
     43 H1'        -0.1998   -1.6319    2.6178 H         1 ACP         0.1127
     44 H8         -3.0609    0.0200    0.8250 H         1 ACP         0.1050
     45 HN61       -5.2046   -3.9433   -0.8775 H         1 ACP         0.4211
     46 HN62       -4.7849   -5.6332   -0.9625 H         1 ACP         0.4211
     47 H2         -0.6318   -5.9307    0.9993 H         1 ACP         0.0375
@<TRIPOS>BOND
     1    1    2 2
     2    1    3 1
     3    1    4 1
     4    1    8 1
     5    4   32 1
     6    5    6 2
     7    5    7 1
     8    5    8 1
     9    5   12 1
    10    7   33 1
    11    8   34 1
    12    8   35 1
    13    9   10 2
    14    9   11 1
    15    9   12 1
    16    9   13 1
    17   13   14 1
    18   14   15 1
    19   14   36 1
    20   14   37 1
    21   15   16 1
    22   15   17 1
    23   15   38 1
    24   16   21 1
    25   17   18 1
    26   17   19 1
    27   17   39 1
    28   18   40 1
    29   19   20 1
    30   19   21 1
    31   19   41 1
    32   20   42 1
    33   21   22 1
    34   21   43 1
    35   22   23 ar
    36   22   31 ar
    37   23   24 ar
    38   23   44 1
    39   24   25 ar
    40   25   26 ar
    41   25   31 ar
    42   26   27 1
    43   26   28 ar
    44   27   45 1
    45   27   46 1
    46   28   29 ar
    47   29   30 ar
    48   29   47 1
    49   30   31 ar
@<TRIPOS>SUBSTRUCTURE
     1 ACP         1 GROUP 0 A     ****
@<TRIPOS>MOLECULE
[[[5-(6-aminopurin-9-yl)-3,4-dihydroxy-tetrahydrofuran-2-yl]methoxy-oxido-phosphoryl]oxy-hydroxy-phosphoryl]methyl-hydroxy-phosphinate
   47    49     1     0     0
SMALL
USER_CHARGES

@<TRIPOS>ATOM
      1 PG         -0.4603    5.1880   -2.3682 P.3       1 ACP         1.3516
      2 O1G         0.0958    4.1341   -1.4390 O.co2     1 ACP        -0.8379
      3 O2G         0.4312    6.0995   -3.1796 O.co2     1 ACP        -0.8379
      4 O3G        -1.5778    4.5131   -3.3459 O.3       1 ACP        -0.7980
      5 PB         -3.0515    5.6370   -0.5141 P.3       1 ACP         1.7688
      6 O1B        -4.0791    4.9988   -1.4000 O.2       1 ACP        -0.9167
      7 O2B        -3.5775    6.9140    0.3251 O.3       1 ACP        -0.8201
      8 C3B        -1.5898    6.2601   -1.3713 C.3       1 ACP        -0.6097
      9 PA         -3.0801    3.8628    1.8538 P.3       1 ACP         1.5979
     10 O1A        -3.9502    2.7657    1.2800 O.co2     1 ACP        -0.8617
     11 O2A        -3.6415    4.8527    2.8511 O.co2     1 ACP        -0.8617
     12 O3A        -2.4039    4.6816    0.6145 O.3       1 ACP        -0.8283
     13 O5'        -1.7337    3.1724    2.4753 O.3       1 ACP        -0.5783
     14 C5'        -0.8811    2.4285    1.6206 C.3       1 ACP         0.1980
     15 C4'        -0.1994    1.3333    2.4288 C.3       1 ACP         0.0815
     16 O4'        -1.1285    0.2356    2.5840 O.3       1 ACP        -0.4127
     17 C3'         1.0324    0.7610    1.7344 C.3       1 ACP         0.0890
     18 O3'         1.9175    0.2377    2.7247 O.3       1 ACP        -0.6221
     19 C2'         0.4468   -0.3802    0.9263 C.3       1 ACP         0.1067
     20 O2'         1.3993   -1.3703    0.5961 O.3       1 ACP        -0.6053
     21 C1'        -0.6159   -0.9100    1.8769 C.3       1 ACP         0.4223
     22 N9         -1.7127   -1.6108    1.2130 N.pl3     1 ACP        -0.6834
     23 C8         -2.0877   -2.9101    1.4304 C.ar      1 ACP         0.5614
     24 N7         -3.1152   -3.2613    0.6857 N.2       1 ACP        -0.5751
     25 C5         -3.4186   -2.1409   -0.0462 C.ar      1 ACP        -0.2117
     26 C6         -4.3953   -1.8809   -1.0023 C.ar      1 ACP         0.7177
     27 N6         -5.3118   -2.8767   -1.3812 N.pl3     1 ACP        -0.9401
     28 N1         -4.4538   -0.6507   -1.5667 N.ar      1 ACP        -0.8008
     29 C2         -3.5442    0.2679   -1.1609 C.ar      1 ACP         0.6565
     30 N3         -2.5561    0.1361   -0.2491 N.ar      1 ACP        -0.7061
     31 C4         -2.5568   -1.1019    0.2674 C.ar      1 ACP         0.5715
     32 HOG3       -1.3017    3.7790   -3.9351 H         1 ACP         0.4226
     33 HOB2       -4.3222    6.7962    0.9525 H         1 ACP         0.4482
     34 H3B1       -0.9565    6.7573   -0.6278 H         1 ACP         0.1012
     35 H3B2       -1.9333    7.0327   -2.0674 H         1 ACP         0.1012
     36 H5'1       -1.4802    1.9928    0.8147 H         1 ACP         0.0481
     37 H5'2       -0.1369    3.1042    1.1873 H         1 ACP         0.0481
     38 H4'         0.0403    1.7078    3.4343 H         1 ACP         0.0904
     39 H3'         1.5906    1.4859    1.1353 H         1 ACP         0.0809
     40 HO3'        2.6839   -0.1150    2.2479 H         1 ACP         0.4528
     41 H2'        -0.0017    0.0018    0.0005 H         1 ACP         0.0594
     42 HO2'        2.0953   -0.9375    0.0709 H         1 ACP         0.4344
     43 H1'        -0.1998   -1.6319    2.6178 H         1 ACP         0.1127
     44 H8         -1.5778   -3.5473    2.1399 H         1 ACP         0.1050
     45 HN61       -5.2294   -3.7965   -0.9914 H         1 ACP         0.4211
     46 HN62       -5.9774   -2.6837   -2.1055 H         1 ACP         0.4211
     47 H2         -3.6201    1.2414   -1.6336 H         1 ACP         0.0375
@<TRIPOS>BOND
     1    1    2 2
     2    1    3 1
     3    1    4 1
     4    1    8 1
     5    4   32 1
     6    5    6 2
     7    5    7 1
     8    5    8 1
     9    5   12 1
    10    7   33 1
    11    8   34 1
    12    8   35 1
    13    9   10 2
    14    9   11 1
    15    9   12 1
    16    9   13 1
    17   13   14 1
    18   14   15 1
    19   14   36 1
    20   14   37 1
    21   15   16 1
    22   15   17 1
    23   15   38 1
    24   16   21 1
    25   17   18 1
    26   17   19 1
    27   17   39 1
    28   18   40 1
    29   19   20 1
    30   19   21 1
    31   19   41 1
    32   20   42 1
    33   21   22 1
    34   21   43 1
    35   22   23 ar
    36   22   31 ar
    37   23   24 ar
    38   23   44 1
    39   24   25 ar
    40   25   26 ar
    41   25   31 ar
    42   26   27 1
    43   26   28 ar
    44   27   45 1
    45   27   46 1
    46   28   29 ar
    47   29   30 ar
    48   29   47 1
    49   30   31 ar
@<TRIPOS>SUBSTRUCTURE
     1 ACP         1 GROUP 0 A     ****
@<TRIPOS>MOLECULE
[[[5-(6-aminopurin-9-yl)-3,4-dihydroxy-tetrahydrofuran-2-yl]methoxy-oxido-phosphoryl]oxy-hydroxy-phosphoryl]methyl-hydroxy-phosphinate
   47    49     1     0     0
SMALL
USER_CHARGES

@<TRIPOS>ATOM
      1 PG         -1.9886    7.4783   -0.4852 P.3       1 ACP         1.3516
      2 O1G        -1.2250    8.0153   -1.6734 O.co2     1 ACP        -0.8379
      3 O2G        -3.2788    8.1028   -0.0064 O.co2     1 ACP        -0.8379
      4 O3G        -2.1968    5.8699   -0.6570 O.3       1 ACP        -0.7980
      5 PB         -1.2898    6.8748    2.5972 P.3       1 ACP         1.7688
      6 O1B        -2.4058    7.6436    3.2387 O.2       1 ACP        -0.9167
      7 O2B         0.1029    6.8882    3.4170 O.3       1 ACP        -0.8201
      8 C3B        -0.8223    7.4453    0.9492 C.3       1 ACP        -0.6097
      9 PA         -1.9156    4.0919    3.3842 P.3       1 ACP         1.5979
     10 O1A        -3.2869    4.3461    3.9714 O.co2     1 ACP        -0.8617
     11 O2A        -0.7216    3.8543    4.2830 O.co2     1 ACP        -0.8617
     12 O3A        -1.5687    5.3044    2.3483 O.3       1 ACP        -0.8283
     13 O5'        -2.0402    2.8619    2.3131 O.3       1 ACP        -0.5783
     14 C5'        -0.8811    2.4285    1.6206 C.3       1 ACP         0.1980
     15 C4'        -0.1994    1.3333    2.4288 C.3       1 ACP         0.0815
     16 O4'        -1.1285    0.2356    2.5840 O.3       1 ACP        -0.4127
     17 C3'         1.0324    0.7610    1.7344 C.3       1 ACP         0.0890
     18 O3'         1.9175    0.2377    2.7247 O.3       1 ACP        -0.6221
     19 C2'         0.4468   -0.3802    0.9263 C.3       1 ACP         0.1067
     20 O2'         1.3993   -1.3703    0.5961 O.3       1 ACP        -0.6053
     21 C1'        -0.6159   -0.9100    1.8769 C.3       1 ACP         0.4223
     22 N9         -1.7127   -1.6108    1.2130 N.pl3     1 ACP        -0.6834
     23 C8         -2.8641   -1.0399    0.7392 C.ar      1 ACP         0.5614
     24 N7         -3.6659   -1.9257    0.1858 N.2       1 ACP        -0.5751
     25 C5         -3.0053   -3.1223    0.3069 C.ar      1 ACP        -0.2117
     26 C6         -3.3321   -4.4178   -0.0813 C.ar      1 ACP         0.7177
     27 N6         -4.5476   -4.6866   -0.7335 N.pl3     1 ACP        -0.9401
     28 N1         -2.4608   -5.4225    0.1773 N.ar      1 ACP        -0.8008
     29 C2         -1.3053   -5.1020    0.8081 C.ar      1 ACP         0.6565
     30 N3         -0.8788   -3.8921    1.2315 N.ar      1 ACP        -0.7061
     31 C4         -1.7870   -2.9477    0.9438 C.ar      1 ACP         0.5715
     32 HOG3       -2.6884    5.5428   -1.4404 H         1 ACP         0.4226
     33 HOB2        0.1214    6.5250    4.3280 H         1 ACP         0.4482
     34 H3B1        0.0392    6.8507    0.6248 H         1 ACP         0.1012
     35 H3B2       -0.4762    8.4789    1.0557 H         1 ACP         0.1012
     36 H5'1       -1.1770    2.0503    0.6369 H         1 ACP         0.0481
     37 H5'2       -0.2082    3.2815    1.4877 H         1 ACP         0.0481
     38 H4'         0.0403    1.7078    3.4343 H         1 ACP         0.0904
     39 H3'         1.5906    1.4859    1.1353 H         1 ACP         0.0809
     40 HO3'        2.6839   -0.1150    2.2479 H         1 ACP         0.4528
     41 H2'        -0.0017    0.0018    0.0005 H         1 ACP         0.0594
     42 HO2'        2.0953   -0.9375    0.0709 H         1 ACP         0.4344
     43 H1'        -0.1998   -1.6319    2.6178 H         1 ACP         0.1127
     44 H8         -3.0609    0.0200    0.8250 H         1 ACP         0.1050
     45 HN61       -5.2046   -3.9433   -0.8775 H         1 ACP         0.4211
     46 HN62       -4.7849   -5.6332   -0.9625 H         1 ACP         0.4211
     47 H2         -0.6318   -5.9307    0.9993 H         1 ACP         0.0375
@<TRIPOS>BOND
     1    1    2 2
     2    1    3 1
     3    1    4 1
     4    1    8 1
     5    4   32 1
     6    5    6 2
     7    5    7 1
     8    5    8 1
     9    5   12 1
    10    7   33 1
    11    8   34 1
    12    8   35 1
    13    9   10 2
    14    9   11 1
    15    9   12 1
    16    9   13 1
    17   13   14 1
    18   14   15 1
    19   14   36 1
    20   14   37 1
    21   15   16 1
    22   15   17 1
    23   15   38 1
    24   16   21 1
    25   17   18 1
    26   17   19 1
    27   17   39 1
    28   18   40 1
    29   19   20 1
    30   19   21 1
    31   19   41 1
    32   20   42 1
    33   21   22 1
    34   21   43 1
    35   22   23 ar
    36   22   31 ar
    37   23   24 ar
    38   23   44 1
    39   24   25 ar
    40   25   26 ar
    41   25   31 ar
    42   26   27 1
    43   26   28 ar
    44   27   45 1
    45   27   46 1
    46   28   29 ar
    47   29   30 ar
    48   29   47 1
    49   30   31 ar
@<TRIPOS>SUBSTRUCTURE
     1 ACP         1 GROUP 0 A     ****
@<TRIPOS>MOLECULE
[[[5-(6-aminopurin-9-yl)-3,4-dihydroxy-tetrahydrofuran-2-yl]methoxy-oxido-phosphoryl]oxy-hydroxy-phosphoryl]methyl-hydroxy-phosphinate
   47    49     1     0     0
SMALL
USER_CHARGES

@<TRIPOS>ATOM
      1 PG          3.8119    6.1522   -2.8787 P.3       1 ACP         1.3516
      2 O1G         2.7257    6.9219   -3.5935 O.co2     1 ACP        -0.8379
      3 O2G         4.9801    6.8387   -2.2095 O.co2     1 ACP        -0.8379
      4 O3G         3.1325    5.0992   -1.8348 O.3       1 ACP        -0.7980
      5 PB          5.8324    3.7779   -3.6753 P.3       1 ACP         1.7688
      6 O1B         7.1190    4.4228   -3.2549 O.2       1 ACP        -0.9167
      7 O2B         5.9402    2.8385   -4.9859 O.3       1 ACP        -0.8201
      8 C3B         4.5019    4.9288   -4.0813 C.3       1 ACP        -0.6097
      9 PA          5.6604    1.4686   -1.8332 P.3       1 ACP         1.5979
     10 O1A         6.8078    1.8451   -0.9214 O.co2     1 ACP        -0.8617
     11 O2A         5.8179    0.3686   -2.8602 O.co2     1 ACP        -0.8617
     12 O3A         5.1332    2.8212   -2.5790 O.3       1 ACP        -0.8283
     13 O5'         4.3515    1.1573   -0.9028 O.3       1 ACP        -0.5783
     14 C5'         4.0922    1.9801    0.2227 C.3       1 ACP         0.1980
     15 C4'         2.5944    2.0310    0.4653 C.3       1 ACP         0.0815
     16 O4'         1.9327    2.5740   -0.6889 O.3       1 ACP        -0.4127
     17 C3'         1.9685    0.6634    0.6767 C.3       1 ACP         0.0890
     18 O3'         2.1425    0.1975    1.9977 O.3       1 ACP        -0.6221
     19 C2'         0.5176    0.9128    0.3099 C.3       1 ACP         0.1067
     20 O2'        -0.2103    1.4454    1.4152 O.3       1 ACP        -0.6053
     21 C1'         0.6219    1.9765   -0.7844 C.3       1 ACP         0.4223
     22 N9          0.4237    1.4496   -2.1357 N.pl3     1 ACP        -0.6834
     23 C8          1.4026    0.9717   -2.9660 C.ar      1 ACP         0.5614
     24 N7          0.9183    0.5619   -4.1197 N.2       1 ACP        -0.5751
     25 C5         -0.4330    0.7845   -4.0331 C.ar      1 ACP        -0.2117
     26 C6         -1.4794    0.5615   -4.9225 C.ar      1 ACP         0.7177
     27 N6         -1.2378    0.0044   -6.1899 N.pl3     1 ACP        -0.9401
     28 N1         -2.7406    0.8885   -4.5512 N.ar      1 ACP        -0.8008
     29 C2         -2.9113    1.4216   -3.3172 C.ar      1 ACP         0.6565
     30 N3         -1.9824    1.6843   -2.3721 N.ar      1 ACP        -0.7061
     31 C4         -0.7613    1.3370   -2.8054 C.ar      1 ACP         0.5715
     32 HOG3        2.5621    5.4523   -1.1191 H         1 ACP         0.4226
     33 HOB2        6.5431    2.0651   -4.9677 H         1 ACP         0.4482
     34 H3B1        3.6491    4.3381   -4.4346 H         1 ACP         0.1012
     35 H3B2        4.8479    5.5302   -4.9288 H         1 ACP         0.1012
     36 H5'1        4.6070    1.5616    1.0933 H         1 ACP         0.0481
     37 H5'2        4.4825    2.9835    0.0252 H         1 ACP         0.0481
     38 H4'         2.3751    2.7029    1.3156 H         1 ACP         0.0904
     39 H3'         2.4336   -0.1217   -0.0015 H         1 ACP         0.0809
     40 HO3'        1.7160   -0.6716    2.0397 H         1 ACP         0.4528
     41 H2'         0.0316    0.0155   -0.0339 H         1 ACP         0.0594
     42 HO2'       -0.1608    0.7921    2.1351 H         1 ACP         0.4344
     43 H1'        -0.1474    2.7798   -0.6651 H         1 ACP         0.1127
     44 H8          2.4442    0.9470   -2.6763 H         1 ACP         0.1050
     45 HN61       -0.2955   -0.1901   -6.4713 H         1 ACP         0.4211
     46 HN62       -1.9987   -0.1045   -6.8334 H         1 ACP         0.4211
     47 H2         -3.9335    1.6716   -3.0534 H         1 ACP         0.0375
@<TRIPOS>BOND
     1    1    2 2
     2    1    3 1
     3    1    4 1
     4    1    8 1
     5    4   32 1
     6    5    6 2
     7    5    7 1
     8    5    8 1
     9    5   12 1
    10    7   33 1
    11    8   34 1
    12    8   35 1
    13    9   10 2
    14    9   11 1
    15    9   12 1
    16    9   13 1
    17   13   14 1
    18   14   15 1
    19   14   36 1
    20   14   37 1
    21   15   16 1
    22   15   17 1
    23   15   38 1
    24   16   21 1
    25   17   18 1
    26   17   19 1
    27   17   39 1
    28   18   40 1
    29   19   20 1
    30   19   21 1
    31   19   41 1
    32   20   42 1
    33   21   22 1
    34   21   43 1
    35   22   23 ar
    36   22   31 ar
    37   23   24 ar
    38   23   44 1
    39   24   25 ar
    40   25   26 ar
    41   25   31 ar
    42   26   27 1
    43   26   28 ar
    44   27   45 1
    45   27   46 1
    46   28   29 ar
    47   29   30 ar
    48   29   47 1
    49   30   31 ar
@<TRIPOS>SUBSTRUCTURE
     1 ACP         1 GROUP 0 A     ****
@<TRIPOS>MOLECULE
[[[5-(6-aminopurin-9-yl)-3,4-dihydroxy-tetrahydrofuran-2-yl]methoxy-oxido-phosphoryl]oxy-hydroxy-phosphoryl]methyl-hydroxy-phosphinate
   47    49     1     0     0
SMALL
USER_CHARGES

@<TRIPOS>ATOM
      1 PG         -0.1666    8.2197    3.0200 P.3       1 ACP         1.3516
      2 O1G         0.6134    9.4851    2.7483 O.co2     1 ACP        -0.8379
      3 O2G         0.5074    6.8783    3.1939 O.co2     1 ACP        -0.8379
      4 O3G        -1.1956    8.4732    4.2597 O.3       1 ACP        -0.7980
      5 PB         -2.5842    6.6696    1.5687 P.3       1 ACP         1.7688
      6 O1B        -3.5127    6.7146    0.3922 O.2       1 ACP        -0.9167
      7 O2B        -3.3141    6.6824    3.0105 O.3       1 ACP        -0.8201
      8 C3B        -1.4154    8.0421    1.6680 C.3       1 ACP        -0.6097
      9 PA         -0.4663    4.8326    0.6227 P.3       1 ACP         1.5979
     10 O1A         0.6760    5.8249    0.6052 O.co2     1 ACP        -0.8617
     11 O2A        -1.1288    4.3936   -0.6650 O.co2     1 ACP        -0.8617
     12 O3A        -1.6097    5.3851    1.6478 O.3       1 ACP        -0.8283
     13 O5'         0.0181    3.5132    1.4596 O.3       1 ACP        -0.5783
     14 C5'        -0.8811    2.4285    1.6206 C.3       1 ACP         0.1980
     15 C4'        -0.1994    1.3333    2.4288 C.3       1 ACP         0.0815
     16 O4'        -1.1285    0.2356    2.5840 O.3       1 ACP        -0.4127
     17 C3'         1.0324    0.7610    1.7344 C.3       1 ACP         0.0890
     18 O3'         1.9175    0.2377    2.7247 O.3       1 ACP        -0.6221
     19 C2'         0.4468   -0.3802    0.9263 C.3       1 ACP         0.1067
     20 O2'         1.3993   -1.3703    0.5961 O.3       1 ACP        -0.6053
     21 C1'        -0.6159   -0.9100    1.8769 C.3       1 ACP         0.4223
     22 N9         -1.7127   -1.6108    1.2130 N.pl3     1 ACP        -0.6834
     23 C8         -2.8641   -1.0399    0.7392 C.ar      1 ACP         0.5614
     24 N7         -3.6659   -1.9257    0.1858 N.2       1 ACP        -0.5751
     25 C5         -3.0053   -3.1223    0.3069 C.ar      1 ACP        -0.2117
     26 C6         -3.3321   -4.4178   -0.0813 C.ar      1 ACP         0.7177
     27 N6         -4.5476   -4.6866   -0.7335 N.pl3     1 ACP        -0.9401
     28 N1         -2.4608   -5.4225    0.1773 N.ar      1 ACP        -0.8008
     29 C2         -1.3053   -5.1020    0.8081 C.ar      1 ACP         0.6565
     30 N3         -0.8788   -3.8921    1.2315 N.ar      1 ACP        -0.7061
     31 C4         -1.7870   -2.9477    0.9438 C.ar      1 ACP         0.5715
     32 HOG3       -0.8246    8.7315    5.1303 H         1 ACP         0.4226
     33 HOB2       -3.9381    5.9592    3.2335 H         1 ACP         0.4482
     34 H3B1       -1.9954    8.9719    1.6681 H         1 ACP         0.1012
     35 H3B2       -0.8299    8.0300    0.7425 H         1 ACP         0.1012
     36 H5'1       -1.7769    2.7851    2.1387 H         1 ACP         0.0481
     37 H5'2       -1.1653    2.0543    0.6320 H         1 ACP         0.0481
     38 H4'         0.0403    1.7078    3.4343 H         1 ACP         0.0904
     39 H3'         1.5906    1.4859    1.1353 H         1 ACP         0.0809
     40 HO3'        2.6839   -0.1150    2.2479 H         1 ACP         0.4528
     41 H2'        -0.0017    0.0018    0.0005 H         1 ACP         0.0594
     42 HO2'        2.0953   -0.9375    0.0709 H         1 ACP         0.4344
     43 H1'        -0.1998   -1.6319    2.6178 H         1 ACP         0.1127
     44 H8         -3.0609    0.0200    0.8250 H         1 ACP         0.1050
     45 HN61       -5.2046   -3.9433   -0.8775 H         1 ACP         0.4211
     46 HN62       -4.7849   -5.6332   -0.9625 H         1 ACP         0.4211
     47 H2         -0.6318   -5.9307    0.9993 H         1 ACP         0.0375
@<TRIPOS>BOND
     1    1    2 2
     2    1    3 1
     3    1    4 1
     4    1    8 1
     5    4   32 1
     6    5    6 2
     7    5    7 1
     8    5    8 1
     9    5   12 1
    10    7   33 1
    11    8   34 1
    12    8   35 1
    13    9   10 2
    14    9   11 1
    15    9   12 1
    16    9   13 1
    17   13   14 1
    18   14   15 1
    19   14   36 1
    20   14   37 1
    21   15   16 1
    22   15   17 1
    23   15   38 1
    24   16   21 1
    25   17   18 1
    26   17   19 1
    27   17   39 1
    28   18   40 1
    29   19   20 1
    30   19   21 1
    31   19   41 1
    32   20   42 1
    33   21   22 1
    34   21   43 1
    35   22   23 ar
    36   22   31 ar
    37   23   24 ar
    38   23   44 1
    39   24   25 ar
    40   25   26 ar
    41   25   31 ar
    42   26   27 1
    43   26   28 ar
    44   27   45 1
    45   27   46 1
    46   28   29 ar
    47   29   30 ar
    48   29   47 1
    49   30   31 ar
@<TRIPOS>SUBSTRUCTURE
     1 ACP         1 GROUP 0 A     ****
@<TRIPOS>MOLECULE
[[[5-(6-aminopurin-9-yl)-3,4-dihydroxy-tetrahydrofuran-2-yl]methoxy-oxido-phosphoryl]oxy-hydroxy-phosphoryl]methyl-hydroxy-phosphinate
   47    49     1     0     0
SMALL
USER_CHARGES

@<TRIPOS>ATOM
      1 PG          5.4888    2.0058   -5.1820 P.3       1 ACP         1.3516
      2 O1G         5.1687    0.8323   -6.0785 O.co2     1 ACP        -0.8379
      3 O2G         5.8957    3.3534   -5.7318 O.co2     1 ACP        -0.8379
      4 O3G         4.2858    2.2039   -4.0987 O.3       1 ACP        -0.7980
      5 PB          7.5238    2.5317   -2.7456 P.3       1 ACP         1.7688
      6 O1B         8.1863    3.7722   -3.2656 O.2       1 ACP        -0.9167
      7 O2B         8.4918    1.5453   -1.9079 O.3       1 ACP        -0.8201
      8 C3B         6.8138    1.4602   -4.0135 C.3       1 ACP        -0.6097
      9 PA          6.1595    3.5245   -0.3149 P.3       1 ACP         1.5979
     10 O1A         6.3881    5.0035   -0.5385 O.co2     1 ACP        -0.8617
     11 O2A         6.9730    2.7625    0.7085 O.co2     1 ACP        -0.8617
     12 O3A         6.2706    2.7650   -1.7552 O.3       1 ACP        -0.8283
     13 O5'         4.5669    3.2940   -0.0211 O.3       1 ACP        -0.5783
     14 C5'         4.0922    1.9801    0.2227 C.3       1 ACP         0.1980
     15 C4'         2.5944    2.0310    0.4653 C.3       1 ACP         0.0815
     16 O4'         1.9327    2.5740   -0.6889 O.3       1 ACP        -0.4127
     17 C3'         1.9685    0.6634    0.6767 C.3       1 ACP         0.0890
     18 O3'         2.1425    0.1975    1.9977 O.3       1 ACP        -0.6221
     19 C2'         0.5176    0.9128    0.3099 C.3       1 ACP         0.1067
     20 O2'        -0.2103    1.4454    1.4152 O.3       1 ACP        -0.6053
     21 C1'         0.6219    1.9765   -0.7844 C.3       1 ACP         0.4223
     22 N9          0.4237    1.4496   -2.1357 N.pl3     1 ACP        -0.6834
     23 C8          1.4026    0.9717   -2.9660 C.ar      1 ACP         0.5614
     24 N7          0.9183    0.5619   -4.1197 N.2       1 ACP        -0.5751
     25 C5         -0.4330    0.7845   -4.0331 C.ar      1 ACP        -0.2117
     26 C6         -1.4794    0.5615   -4.9225 C.ar      1 ACP         0.7177
     27 N6         -1.2378    0.0044   -6.1899 N.pl3     1 ACP        -0.9401
     28 N1         -2.7406    0.8885   -4.5512 N.ar      1 ACP        -0.8008
     29 C2         -2.9113    1.4216   -3.3172 C.ar      1 ACP         0.6565
     30 N3         -1.9824    1.6843   -2.3721 N.ar      1 ACP        -0.7061
     31 C4         -0.7613    1.3370   -2.8054 C.ar      1 ACP         0.5715
     32 HOG3        3.3807    2.3821   -4.4321 H         1 ACP         0.4226
     33 HOB2        8.9263    1.8830   -1.0960 H         1 ACP         0.4482
     34 H3B1        6.4257    0.5662   -3.5124 H         1 ACP         0.1012
     35 H3B2        7.6397    1.1345   -4.6550 H         1 ACP         0.1012
     36 H5'1        4.3180    1.3550   -0.6470 H         1 ACP         0.0481
     37 H5'2        4.6085    1.5739    1.0983 H         1 ACP         0.0481
     38 H4'         2.3751    2.7029    1.3156 H         1 ACP         0.0904
     39 H3'         2.4336   -0.1217   -0.0015 H         1 ACP         0.0809
     40 HO3'        1.7160   -0.6716    2.0397 H         1 ACP         0.4528
     41 H2'         0.0316    0.0155   -0.0339 H         1 ACP         0.0594
     42 HO2'       -0.1608    0.7921    2.1351 H         1 ACP         0.4344
     43 H1'        -0.1474    2.7798   -0.6651 H         1 ACP         0.1127
     44 H8          2.4442    0.9470   -2.6763 H         1 ACP         0.1050
     45 HN61       -0.2955   -0.1901   -6.4713 H         1 ACP         0.4211
     46 HN62       -1.9987   -0.1045   -6.8334 H         1 ACP         0.4211
     47 H2         -3.9335    1.6716   -3.0534 H         1 ACP         0.0375
@<TRIPOS>BOND
     1    1    2 2
     2    1    3 1
     3    1    4 1
     4    1    8 1
     5    4   32 1
     6    5    6 2
     7    5    7 1
     8    5    8 1
     9    5   12 1
    10    7   33 1
    11    8   34 1
    12    8   35 1
    13    9   10 2
    14    9   11 1
    15    9   12 1
    16    9   13 1
    17   13   14 1
    18   14   15 1
    19   14   36 1
    20   14   37 1
    21   15   16 1
    22   15   17 1
    23   15   38 1
    24   16   21 1
    25   17   18 1
    26   17   19 1
    27   17   39 1
    28   18   40 1
    29   19   20 1
    30   19   21 1
    31   19   41 1
    32   20   42 1
    33   21   22 1
    34   21   43 1
    35   22   23 ar
    36   22   31 ar
    37   23   24 ar
    38   23   44 1
    39   24   25 ar
    40   25   26 ar
    41   25   31 ar
    42   26   27 1
    43   26   28 ar
    44   27   45 1
    45   27   46 1
    46   28   29 ar
    47   29   30 ar
    48   29   47 1
    49   30   31 ar
@<TRIPOS>SUBSTRUCTURE
     1 ACP         1 GROUP 0 A     ****
@<TRIPOS>MOLECULE
[[[5-(6-aminopurin-9-yl)-3,4-dihydroxy-tetrahydrofuran-2-yl]methoxy-oxido-phosphoryl]oxy-hydroxy-phosphoryl]methyl-hydroxy-phosphinate
   47    49     1     0     0
SMALL
USER_CHARGES

@<TRIPOS>ATOM
      1 PG         -4.4660    5.5059    4.5938 P.3       1 ACP         1.3516
      2 O1G        -4.2405    6.9052    5.1175 O.co2     1 ACP        -0.8379
      3 O2G        -3.5119    4.3713    4.8870 O.co2     1 ACP        -0.8379
      4 O3G        -5.9887    5.0362    4.9414 O.3       1 ACP        -0.7980
      5 PB         -3.3426    6.2792    1.6793 P.3       1 ACP         1.7688
      6 O1B        -2.9451    7.6979    1.9573 O.2       1 ACP        -0.9167
      7 O2B        -3.9127    6.0130    0.1907 O.3       1 ACP        -0.8201
      8 C3B        -4.6364    5.6269    2.7565 C.3       1 ACP        -0.6097
      9 PA         -0.7383    5.0057    1.0867 P.3       1 ACP         1.5979
     10 O1A         0.1534    6.1575    1.4965 O.co2     1 ACP        -0.8617
     11 O2A        -0.9823    4.6989   -0.3748 O.co2     1 ACP        -0.8617
     12 O3A        -2.1752    5.1761    1.8416 O.3       1 ACP        -0.8283
     13 O5'        -0.2060    3.6558    1.8418 O.3       1 ACP        -0.5783
     14 C5'        -0.8811    2.4285    1.6206 C.3       1 ACP         0.1980
     15 C4'        -0.1994    1.3333    2.4288 C.3       1 ACP         0.0815
     16 O4'        -1.1285    0.2356    2.5840 O.3       1 ACP        -0.4127
     17 C3'         1.0324    0.7610    1.7344 C.3       1 ACP         0.0890
     18 O3'         1.9175    0.2377    2.7247 O.3       1 ACP        -0.6221
     19 C2'         0.4468   -0.3802    0.9263 C.3       1 ACP         0.1067
     20 O2'         1.3993   -1.3703    0.5961 O.3       1 ACP        -0.6053
     21 C1'        -0.6159   -0.9100    1.8769 C.3       1 ACP         0.4223
     22 N9         -1.7127   -1.6108    1.2130 N.pl3     1 ACP        -0.6834
     23 C8         -1.7712   -2.9546    0.9544 C.ar      1 ACP         0.5614
     24 N7         -2.8883   -3.2948    0.3462 N.2       1 ACP        -0.5751
     25 C5         -3.5834   -2.1202    0.2043 C.ar      1 ACP        -0.2117
     26 C6         -4.8225   -1.8251   -0.3554 C.ar      1 ACP         0.7177
     27 N6         -5.6154   -2.8395   -0.9189 N.pl3     1 ACP        -0.9401
     28 N1         -5.2589   -0.5425   -0.3507 N.ar      1 ACP        -0.8008
     29 C2         -4.4510    0.3913    0.2069 C.ar      1 ACP         0.6565
     30 N3         -3.2368    0.2296    0.7767 N.ar      1 ACP        -0.7061
     31 C4         -2.8684   -1.0596    0.7376 C.ar      1 ACP         0.5715
     32 HOG3       -6.2637    4.9997    5.8823 H         1 ACP         0.4226
     33 HOB2       -3.3362    6.2030   -0.5797 H         1 ACP         0.4482
     34 H3B1       -4.8794    4.6166    2.4083 H         1 ACP         0.1012
     35 H3B2       -5.5268    6.2439    2.5954 H         1 ACP         0.1012
     36 H5'1       -1.9255    2.5382    1.9294 H         1 ACP         0.0481
     37 H5'2       -0.8473    2.1933    0.5521 H         1 ACP         0.0481
     38 H4'         0.0403    1.7078    3.4343 H         1 ACP         0.0904
     39 H3'         1.5906    1.4859    1.1353 H         1 ACP         0.0809
     40 HO3'        2.6839   -0.1150    2.2479 H         1 ACP         0.4528
     41 H2'        -0.0017    0.0018    0.0005 H         1 ACP         0.0594
     42 HO2'        0.9369   -2.0558    0.0825 H         1 ACP         0.4344
     43 H1'        -0.1998   -1.6319    2.6178 H         1 ACP         0.1127
     44 H8         -0.9745   -3.6312    1.2318 H         1 ACP         0.1050
     45 HN61       -5.2619   -3.7766   -0.9586 H         1 ACP         0.4211
     46 HN62       -6.4834   -2.5990   -1.3590 H         1 ACP         0.4211
     47 H2         -4.8317    1.4071    0.1930 H         1 ACP         0.0375
@<TRIPOS>BOND
     1    1    2 2
     2    1    3 1
     3    1    4 1
     4    1    8 1
     5    4   32 1
     6    5    6 2
     7    5    7 1
     8    5    8 1
     9    5   12 1
    10    7   33 1
    11    8   34 1
    12    8   35 1
    13    9   10 2
    14    9   11 1
    15    9   12 1
    16    9   13 1
    17   13   14 1
    18   14   15 1
    19   14   36 1
    20   14   37 1
    21   15   16 1
    22   15   17 1
    23   15   38 1
    24   16   21 1
    25   17   18 1
    26   17   19 1
    27   17   39 1
    28   18   40 1
    29   19   20 1
    30   19   21 1
    31   19   41 1
    32   20   42 1
    33   21   22 1
    34   21   43 1
    35   22   23 ar
    36   22   31 ar
    37   23   24 ar
    38   23   44 1
    39   24   25 ar
    40   25   26 ar
    41   25   31 ar
    42   26   27 1
    43   26   28 ar
    44   27   45 1
    45   27   46 1
    46   28   29 ar
    47   29   30 ar
    48   29   47 1
    49   30   31 ar
@<TRIPOS>SUBSTRUCTURE
     1 ACP         1 GROUP 0 A     ****
@<TRIPOS>MOLECULE
[[[5-(6-aminopurin-9-yl)-3,4-dihydroxy-tetrahydrofuran-2-yl]methoxy-oxido-phosphoryl]oxy-hydroxy-phosphoryl]methyl-hydroxy-phosphinate
   47    49     1     0     0
SMALL
USER_CHARGES

@<TRIPOS>ATOM
      1 PG         -0.2677    6.6604   -0.6924 P.3       1 ACP         1.3516
      2 O1G         0.9641    6.2206    0.0643 O.co2     1 ACP        -0.8379
      3 O2G        -0.2165    7.7154   -1.7732 O.co2     1 ACP        -0.8379
      4 O3G        -1.0560    5.3478   -1.2541 O.3       1 ACP        -0.7980
      5 PB         -2.1726    6.1247    1.8450 P.3       1 ACP         1.7688
      6 O1B        -3.1754    6.7650    2.7574 O.2       1 ACP        -0.9167
      7 O2B        -0.8505    5.5569    2.5806 O.3       1 ACP        -0.8201
      8 C3B        -1.5155    7.2070    0.5579 C.3       1 ACP        -0.6097
      9 PA         -3.3165    3.4234    1.4577 P.3       1 ACP         1.5979
     10 O1A        -3.4792    2.5547    0.2293 O.co2     1 ACP        -0.8617
     11 O2A        -4.4804    3.6637    2.3942 O.co2     1 ACP        -0.8617
     12 O3A        -2.7035    4.8620    0.9906 O.3       1 ACP        -0.8283
     13 O5'        -2.0402    2.8619    2.3131 O.3       1 ACP        -0.5783
     14 C5'        -0.8811    2.4285    1.6206 C.3       1 ACP         0.1980
     15 C4'        -0.1994    1.3333    2.4288 C.3       1 ACP         0.0815
     16 O4'        -1.1285    0.2356    2.5840 O.3       1 ACP        -0.4127
     17 C3'         1.0324    0.7610    1.7344 C.3       1 ACP         0.0890
     18 O3'         1.9175    0.2377    2.7247 O.3       1 ACP        -0.6221
     19 C2'         0.4468   -0.3802    0.9263 C.3       1 ACP         0.1067
     20 O2'         1.3993   -1.3703    0.5961 O.3       1 ACP        -0.6053
     21 C1'        -0.6159   -0.9100    1.8769 C.3       1 ACP         0.4223
     22 N9         -1.7127   -1.6108    1.2130 N.pl3     1 ACP        -0.6834
     23 C8         -2.8641   -1.0399    0.7392 C.ar      1 ACP         0.5614
     24 N7         -3.6659   -1.9257    0.1858 N.2       1 ACP        -0.5751
     25 C5         -3.0053   -3.1223    0.3069 C.ar      1 ACP        -0.2117
     26 C6         -3.3321   -4.4178   -0.0813 C.ar      1 ACP         0.7177
     27 N6         -4.5476   -4.6866   -0.7335 N.pl3     1 ACP        -0.9401
     28 N1         -2.4608   -5.4225    0.1773 N.ar      1 ACP        -0.8008
     29 C2         -1.3053   -5.1020    0.8081 C.ar      1 ACP         0.6565
     30 N3         -0.8788   -3.8921    1.2315 N.ar      1 ACP        -0.7061
     31 C4         -1.7870   -2.9477    0.9438 C.ar      1 ACP         0.5715
     32 HOG3       -0.5844    4.7467   -1.8694 H         1 ACP         0.4226
     33 HOB2       -0.9498    4.8651    3.2688 H         1 ACP         0.4482
     34 H3B1       -1.0840    8.0850    1.0518 H         1 ACP         0.1012
     35 H3B2       -2.3699    7.5582   -0.0305 H         1 ACP         0.1012
     36 H5'1       -1.1770    2.0503    0.6369 H         1 ACP         0.0481
     37 H5'2       -0.2082    3.2815    1.4877 H         1 ACP         0.0481
     38 H4'         0.0403    1.7078    3.4343 H         1 ACP         0.0904
     39 H3'         1.5906    1.4859    1.1353 H         1 ACP         0.0809
     40 HO3'        2.6839   -0.1150    2.2479 H         1 ACP         0.4528
     41 H2'        -0.0017    0.0018    0.0005 H         1 ACP         0.0594
     42 HO2'        2.0953   -0.9375    0.0709 H         1 ACP         0.4344
     43 H1'        -0.1998   -1.6319    2.6178 H         1 ACP         0.1127
     44 H8         -3.0609    0.0200    0.8250 H         1 ACP         0.1050
     45 HN61       -5.2046   -3.9433   -0.8775 H         1 ACP         0.4211
     46 HN62       -4.7849   -5.6332   -0.9625 H         1 ACP         0.4211
     47 H2         -0.6318   -5.9307    0.9993 H         1 ACP         0.0375
@<TRIPOS>BOND
     1    1    2 2
     2    1    3 1
     3    1    4 1
     4    1    8 1
     5    4   32 1
     6    5    6 2
     7    5    7 1
     8    5    8 1
     9    5   12 1
    10    7   33 1
    11    8   34 1
    12    8   35 1
    13    9   10 2
    14    9   11 1
    15    9   12 1
    16    9   13 1
    17   13   14 1
    18   14   15 1
    19   14   36 1
    20   14   37 1
    21   15   16 1
    22   15   17 1
    23   15   38 1
    24   16   21 1
    25   17   18 1
    26   17   19 1
    27   17   39 1
    28   18   40 1
    29   19   20 1
    30   19   21 1
    31   19   41 1
    32   20   42 1
    33   21   22 1
    34   21   43 1
    35   22   23 ar
    36   22   31 ar
    37   23   24 ar
    38   23   44 1
    39   24   25 ar
    40   25   26 ar
    41   25   31 ar
    42   26   27 1
    43   26   28 ar
    44   27   45 1
    45   27   46 1
    46   28   29 ar
    47   29   30 ar
    48   29   47 1
    49   30   31 ar
@<TRIPOS>SUBSTRUCTURE
     1 ACP         1 GROUP 0 A     ****
@<TRIPOS>MOLECULE
[[[5-(6-aminopurin-9-yl)-3,4-dihydroxy-tetrahydrofuran-2-yl]methoxy-oxido-phosphoryl]oxy-hydroxy-phosphoryl]methyl-hydroxy-phosphinate
   47    49     1     0     0
SMALL
USER_CHARGES

@<TRIPOS>ATOM
      1 PG          0.5992    6.5683   -1.1131 P.3       1 ACP         1.3516
      2 O1G         1.5561    5.8460   -0.1934 O.co2     1 ACP        -0.8379
      3 O2G         1.0344    7.7249   -1.9829 O.co2     1 ACP        -0.8379
      4 O3G        -0.2041    5.4789   -2.0230 O.3       1 ACP        -0.7980
      5 PB         -1.8903    6.0426    0.8568 P.3       1 ACP         1.7688
      6 O1B        -2.6216    5.0251    0.0334 O.2       1 ACP        -0.9167
      7 O2B        -2.8392    7.0446    1.6978 O.3       1 ACP        -0.8201
      8 C3B        -0.8196    7.1531   -0.0815 C.3       1 ACP        -0.6097
      9 PA         -1.1367    4.4810    3.2545 P.3       1 ACP         1.5979
     10 O1A        -2.2478    5.0798    4.0892 O.co2     1 ACP        -0.8617
     11 O2A         0.1952    4.1272    3.8795 O.co2     1 ACP        -0.8617
     12 O3A        -0.8797    5.4536    1.9694 O.3       1 ACP        -0.8283
     13 O5'        -1.7337    3.1724    2.4753 O.3       1 ACP        -0.5783
     14 C5'        -0.8811    2.4285    1.6206 C.3       1 ACP         0.1980
     15 C4'        -0.1994    1.3333    2.4288 C.3       1 ACP         0.0815
     16 O4'        -1.1285    0.2356    2.5840 O.3       1 ACP        -0.4127
     17 C3'         1.0324    0.7610    1.7344 C.3       1 ACP         0.0890
     18 O3'         1.9175    0.2377    2.7247 O.3       1 ACP        -0.6221
     19 C2'         0.4468   -0.3802    0.9263 C.3       1 ACP         0.1067
     20 O2'         1.3993   -1.3703    0.5961 O.3       1 ACP        -0.6053
     21 C1'        -0.6159   -0.9100    1.8769 C.3       1 ACP         0.4223
     22 N9         -1.7127   -1.6108    1.2130 N.pl3     1 ACP        -0.6834
     23 C8         -2.8641   -1.0399    0.7392 C.ar      1 ACP         0.5614
     24 N7         -3.6659   -1.9257    0.1858 N.2       1 ACP        -0.5751
     25 C5         -3.0053   -3.1223    0.3069 C.ar      1 ACP        -0.2117
     26 C6         -3.3321   -4.4178   -0.0813 C.ar      1 ACP         0.7177
     27 N6         -4.5476   -4.6866   -0.7335 N.pl3     1 ACP        -0.9401
     28 N1         -2.4608   -5.4225    0.1773 N.ar      1 ACP        -0.8008
     29 C2         -1.3053   -5.1020    0.8081 C.ar      1 ACP         0.6565
     30 N3         -0.8788   -3.8921    1.2315 N.ar      1 ACP        -0.7061
     31 C4         -1.7870   -2.9477    0.9438 C.ar      1 ACP         0.5715
     32 HOG3        0.3132    4.8889   -2.6118 H         1 ACP         0.4226
     33 HOB2       -3.4551    6.6695    2.3627 H         1 ACP         0.4482
     34 H3B1       -0.4019    7.8829    0.6213 H         1 ACP         0.1012
     35 H3B2       -1.4628    7.7069   -0.7737 H         1 ACP         0.1012
     36 H5'1       -1.4802    1.9928    0.8147 H         1 ACP         0.0481
     37 H5'2       -0.1369    3.1042    1.1873 H         1 ACP         0.0481
     38 H4'         0.0403    1.7078    3.4343 H         1 ACP         0.0904
     39 H3'         1.5906    1.4859    1.1353 H         1 ACP         0.0809
     40 HO3'        2.6839   -0.1150    2.2479 H         1 ACP         0.4528
     41 H2'        -0.0017    0.0018    0.0005 H         1 ACP         0.0594
     42 HO2'        0.9369   -2.0558    0.0825 H         1 ACP         0.4344
     43 H1'        -0.1998   -1.6319    2.6178 H         1 ACP         0.1127
     44 H8         -3.0609    0.0200    0.8250 H         1 ACP         0.1050
     45 HN61       -5.2046   -3.9433   -0.8775 H         1 ACP         0.4211
     46 HN62       -4.7849   -5.6332   -0.9625 H         1 ACP         0.4211
     47 H2         -0.6318   -5.9307    0.9993 H         1 ACP         0.0375
@<TRIPOS>BOND
     1    1    2 2
     2    1    3 1
     3    1    4 1
     4    1    8 1
     5    4   32 1
     6    5    6 2
     7    5    7 1
     8    5    8 1
     9    5   12 1
    10    7   33 1
    11    8   34 1
    12    8   35 1
    13    9   10 2
    14    9   11 1
    15    9   12 1
    16    9   13 1
    17   13   14 1
    18   14   15 1
    19   14   36 1
    20   14   37 1
    21   15   16 1
    22   15   17 1
    23   15   38 1
    24   16   21 1
    25   17   18 1
    26   17   19 1
    27   17   39 1
    28   18   40 1
    29   19   20 1
    30   19   21 1
    31   19   41 1
    32   20   42 1
    33   21   22 1
    34   21   43 1
    35   22   23 ar
    36   22   31 ar
    37   23   24 ar
    38   23   44 1
    39   24   25 ar
    40   25   26 ar
    41   25   31 ar
    42   26   27 1
    43   26   28 ar
    44   27   45 1
    45   27   46 1
    46   28   29 ar
    47   29   30 ar
    48   29   47 1
    49   30   31 ar
@<TRIPOS>SUBSTRUCTURE
     1 ACP         1 GROUP 0 A     ****
@<TRIPOS>MOLECULE
[[[5-(6-aminopurin-9-yl)-3,4-dihydroxy-tetrahydrofuran-2-yl]methoxy-oxido-phosphoryl]oxy-hydroxy-phosphoryl]methyl-hydroxy-phosphinate
   47    49     1     0     0
SMALL
USER_CHARGES

@<TRIPOS>ATOM
      1 PG         -0.8677    8.6530    1.8046 P.3       1 ACP         1.3516
      2 O1G        -0.0363    9.6492    1.0301 O.co2     1 ACP        -0.8379
      3 O2G        -0.3569    7.9754    3.0551 O.co2     1 ACP        -0.8379
      4 O3G        -2.3413    9.2880    2.0965 O.3       1 ACP        -0.7980
      5 PB         -2.3911    5.9084    1.0974 P.3       1 ACP         1.7688
      6 O1B        -2.6918    4.9470   -0.0132 O.2       1 ACP        -0.9167
      7 O2B        -3.6906    6.5792    1.7852 O.3       1 ACP        -0.8201
      8 C3B        -1.3779    7.3255    0.6230 C.3       1 ACP        -0.6097
      9 PA         -1.9156    4.0919    3.3842 P.3       1 ACP         1.5979
     10 O1A        -3.2869    4.3461    3.9714 O.co2     1 ACP        -0.8617
     11 O2A        -0.7216    3.8543    4.2830 O.co2     1 ACP        -0.8617
     12 O3A        -1.5687    5.3044    2.3483 O.3       1 ACP        -0.8283
     13 O5'        -2.0402    2.8619    2.3131 O.3       1 ACP        -0.5783
     14 C5'        -0.8811    2.4285    1.6206 C.3       1 ACP         0.1980
     15 C4'        -0.1994    1.3333    2.4288 C.3       1 ACP         0.0815
     16 O4'        -1.1285    0.2356    2.5840 O.3       1 ACP        -0.4127
     17 C3'         1.0324    0.7610    1.7344 C.3       1 ACP         0.0890
     18 O3'         1.9175    0.2377    2.7247 O.3       1 ACP        -0.6221
     19 C2'         0.4468   -0.3802    0.9263 C.3       1 ACP         0.1067
     20 O2'         1.3993   -1.3703    0.5961 O.3       1 ACP        -0.6053
     21 C1'        -0.6159   -0.9100    1.8769 C.3       1 ACP         0.4223
     22 N9         -1.7127   -1.6108    1.2130 N.pl3     1 ACP        -0.6834
     23 C8         -2.8641   -1.0399    0.7392 C.ar      1 ACP         0.5614
     24 N7         -3.6659   -1.9257    0.1858 N.2       1 ACP        -0.5751
     25 C5         -3.0053   -3.1223    0.3069 C.ar      1 ACP        -0.2117
     26 C6         -3.3321   -4.4178   -0.0813 C.ar      1 ACP         0.7177
     27 N6         -4.5476   -4.6866   -0.7335 N.pl3     1 ACP        -0.9401
     28 N1         -2.4608   -5.4225    0.1773 N.ar      1 ACP        -0.8008
     29 C2         -1.3053   -5.1020    0.8081 C.ar      1 ACP         0.6565
     30 N3         -0.8788   -3.8921    1.2315 N.ar      1 ACP        -0.7061
     31 C4         -1.7870   -2.9477    0.9438 C.ar      1 ACP         0.5715
     32 HOG3       -2.3983   10.1193    2.6142 H         1 ACP         0.4226
     33 HOB2       -4.3554    5.9980    2.2121 H         1 ACP         0.4482
     34 H3B1       -1.8869    7.8351   -0.2029 H         1 ACP         0.1012
     35 H3B2       -0.4392    6.9269    0.2234 H         1 ACP         0.1012
     36 H5'1       -1.1770    2.0503    0.6369 H         1 ACP         0.0481
     37 H5'2       -0.2082    3.2815    1.4877 H         1 ACP         0.0481
     38 H4'         0.0403    1.7078    3.4343 H         1 ACP         0.0904
     39 H3'         1.5906    1.4859    1.1353 H         1 ACP         0.0809
     40 HO3'        2.6839   -0.1150    2.2479 H         1 ACP         0.4528
     41 H2'        -0.0017    0.0018    0.0005 H         1 ACP         0.0594
     42 HO2'        2.0953   -0.9375    0.0709 H         1 ACP         0.4344
     43 H1'        -0.1998   -1.6319    2.6178 H         1 ACP         0.1127
     44 H8         -3.0609    0.0200    0.8250 H         1 ACP         0.1050
     45 HN61       -5.2046   -3.9433   -0.8775 H         1 ACP         0.4211
     46 HN62       -4.7849   -5.6332   -0.9625 H         1 ACP         0.4211
     47 H2         -0.6318   -5.9307    0.9993 H         1 ACP         0.0375
@<TRIPOS>BOND
     1    1    2 2
     2    1    3 1
     3    1    4 1
     4    1    8 1
     5    4   32 1
     6    5    6 2
     7    5    7 1
     8    5    8 1
     9    5   12 1
    10    7   33 1
    11    8   34 1
    12    8   35 1
    13    9   10 2
    14    9   11 1
    15    9   12 1
    16    9   13 1
    17   13   14 1
    18   14   15 1
    19   14   36 1
    20   14   37 1
    21   15   16 1
    22   15   17 1
    23   15   38 1
    24   16   21 1
    25   17   18 1
    26   17   19 1
    27   17   39 1
    28   18   40 1
    29   19   20 1
    30   19   21 1
    31   19   41 1
    32   20   42 1
    33   21   22 1
    34   21   43 1
    35   22   23 ar
    36   22   31 ar
    37   23   24 ar
    38   23   44 1
    39   24   25 ar
    40   25   26 ar
    41   25   31 ar
    42   26   27 1
    43   26   28 ar
    44   27   45 1
    45   27   46 1
    46   28   29 ar
    47   29   30 ar
    48   29   47 1
    49   30   31 ar
@<TRIPOS>SUBSTRUCTURE
     1 ACP         1 GROUP 0 A     ****
@<TRIPOS>MOLECULE
[[[5-(6-aminopurin-9-yl)-3,4-dihydroxy-tetrahydrofuran-2-yl]methoxy-oxido-phosphoryl]oxy-hydroxy-phosphoryl]methyl-hydroxy-phosphinate
   47    49     1     0     0
SMALL
USER_CHARGES

@<TRIPOS>ATOM
      1 PG         -2.8209    7.1556    5.1801 P.3       1 ACP         1.3516
      2 O1G        -3.4834    7.0821    3.8240 O.co2     1 ACP        -0.8379
      3 O2G        -1.9514    8.3214    5.5909 O.co2     1 ACP        -0.8379
      4 O3G        -3.9306    6.8724    6.3413 O.3       1 ACP        -0.7980
      5 PB         -0.4691    5.1522    4.2806 P.3       1 ACP         1.7688
      6 O1B         0.2159    3.8637    4.6252 O.2       1 ACP        -0.9167
      7 O2B         0.4906    6.4525    4.2805 O.3       1 ACP        -0.8201
      8 C3B        -1.8185    5.6157    5.3870 C.3       1 ACP        -0.6097
      9 PA         -0.5788    5.0303    1.3262 P.3       1 ACP         1.5979
     10 O1A         0.5862    5.9826    1.1662 O.co2     1 ACP        -0.8617
     11 O2A        -1.7218    5.0335    0.3346 O.co2     1 ACP        -0.8617
     12 O3A        -1.1812    5.2058    2.8328 O.3       1 ACP        -0.8283
     13 O5'         0.0181    3.5132    1.4596 O.3       1 ACP        -0.5783
     14 C5'        -0.8811    2.4285    1.6206 C.3       1 ACP         0.1980
     15 C4'        -0.1994    1.3333    2.4288 C.3       1 ACP         0.0815
     16 O4'        -1.1285    0.2356    2.5840 O.3       1 ACP        -0.4127
     17 C3'         1.0324    0.7610    1.7344 C.3       1 ACP         0.0890
     18 O3'         1.9175    0.2377    2.7247 O.3       1 ACP        -0.6221
     19 C2'         0.4468   -0.3802    0.9263 C.3       1 ACP         0.1067
     20 O2'         1.3993   -1.3703    0.5961 O.3       1 ACP        -0.6053
     21 C1'        -0.6159   -0.9100    1.8769 C.3       1 ACP         0.4223
     22 N9         -1.7127   -1.6108    1.2130 N.pl3     1 ACP        -0.6834
     23 C8         -2.8641   -1.0399    0.7392 C.ar      1 ACP         0.5614
     24 N7         -3.6659   -1.9257    0.1858 N.2       1 ACP        -0.5751
     25 C5         -3.0053   -3.1223    0.3069 C.ar      1 ACP        -0.2117
     26 C6         -3.3321   -4.4178   -0.0813 C.ar      1 ACP         0.7177
     27 N6         -4.5476   -4.6866   -0.7335 N.pl3     1 ACP        -0.9401
     28 N1         -2.4608   -5.4225    0.1773 N.ar      1 ACP        -0.8008
     29 C2         -1.3053   -5.1020    0.8081 C.ar      1 ACP         0.6565
     30 N3         -0.8788   -3.8921    1.2315 N.ar      1 ACP        -0.7061
     31 C4         -1.7870   -2.9477    0.9438 C.ar      1 ACP         0.5715
     32 HOG3       -4.7034    7.4730    6.4063 H         1 ACP         0.4226
     33 HOB2        1.2581    6.4764    3.6702 H         1 ACP         0.4482
     34 H3B1       -1.4145    5.6524    6.4050 H         1 ACP         0.1012
     35 H3B2       -2.5473    4.7986    5.3609 H         1 ACP         0.1012
     36 H5'1       -1.7769    2.7851    2.1387 H         1 ACP         0.0481
     37 H5'2       -1.1653    2.0543    0.6320 H         1 ACP         0.0481
     38 H4'         0.0403    1.7078    3.4343 H         1 ACP         0.0904
     39 H3'         1.5906    1.4859    1.1353 H         1 ACP         0.0809
     40 HO3'        2.1521    0.9800    3.3017 H         1 ACP         0.4528
     41 H2'        -0.0017    0.0018    0.0005 H         1 ACP         0.0594
     42 HO2'        2.0953   -0.9375    0.0709 H         1 ACP         0.4344
     43 H1'        -0.1998   -1.6319    2.6178 H         1 ACP         0.1127
     44 H8         -3.0609    0.0200    0.8250 H         1 ACP         0.1050
     45 HN61       -5.2046   -3.9433   -0.8775 H         1 ACP         0.4211
     46 HN62       -4.7849   -5.6332   -0.9625 H         1 ACP         0.4211
     47 H2         -0.6318   -5.9307    0.9993 H         1 ACP         0.0375
@<TRIPOS>BOND
     1    1    2 2
     2    1    3 1
     3    1    4 1
     4    1    8 1
     5    4   32 1
     6    5    6 2
     7    5    7 1
     8    5    8 1
     9    5   12 1
    10    7   33 1
    11    8   34 1
    12    8   35 1
    13    9   10 2
    14    9   11 1
    15    9   12 1
    16    9   13 1
    17   13   14 1
    18   14   15 1
    19   14   36 1
    20   14   37 1
    21   15   16 1
    22   15   17 1
    23   15   38 1
    24   16   21 1
    25   17   18 1
    26   17   19 1
    27   17   39 1
    28   18   40 1
    29   19   20 1
    30   19   21 1
    31   19   41 1
    32   20   42 1
    33   21   22 1
    34   21   43 1
    35   22   23 ar
    36   22   31 ar
    37   23   24 ar
    38   23   44 1
    39   24   25 ar
    40   25   26 ar
    41   25   31 ar
    42   26   27 1
    43   26   28 ar
    44   27   45 1
    45   27   46 1
    46   28   29 ar
    47   29   30 ar
    48   29   47 1
    49   30   31 ar
@<TRIPOS>SUBSTRUCTURE
     1 ACP         1 GROUP 0 A     ****
@<TRIPOS>MOLECULE
[[[5-(6-aminopurin-9-yl)-3,4-dihydroxy-tetrahydrofuran-2-yl]methoxy-oxido-phosphoryl]oxy-hydroxy-phosphoryl]methyl-hydroxy-phosphinate
   47    49     1     0     0
SMALL
USER_CHARGES

@<TRIPOS>ATOM
      1 PG          0.5225    6.6676   -0.0536 P.3       1 ACP         1.3516
      2 O1G         0.1408    5.2222   -0.2737 O.co2     1 ACP        -0.8379
      3 O2G         1.8407    7.0682    0.5672 O.co2     1 ACP        -0.8379
      4 O3G         0.2990    7.5034   -1.4362 O.3       1 ACP        -0.7980
      5 PB         -1.2898    6.8748    2.5972 P.3       1 ACP         1.7688
      6 O1B        -2.4058    7.6436    3.2387 O.2       1 ACP        -0.9167
      7 O2B         0.1029    6.8882    3.4170 O.3       1 ACP        -0.8201
      8 C3B        -0.8223    7.4453    0.9492 C.3       1 ACP        -0.6097
      9 PA         -1.9156    4.0919    3.3842 P.3       1 ACP         1.5979
     10 O1A        -3.2869    4.3461    3.9714 O.co2     1 ACP        -0.8617
     11 O2A        -0.7216    3.8543    4.2830 O.co2     1 ACP        -0.8617
     12 O3A        -1.5687    5.3044    2.3483 O.3       1 ACP        -0.8283
     13 O5'        -2.0402    2.8619    2.3131 O.3       1 ACP        -0.5783
     14 C5'        -0.8811    2.4285    1.6206 C.3       1 ACP         0.1980
     15 C4'        -0.1994    1.3333    2.4288 C.3       1 ACP         0.0815
     16 O4'        -1.1285    0.2356    2.5840 O.3       1 ACP        -0.4127
     17 C3'         1.0324    0.7610    1.7344 C.3       1 ACP         0.0890
     18 O3'         1.9175    0.2377    2.7247 O.3       1 ACP        -0.6221
     19 C2'         0.4468   -0.3802    0.9263 C.3       1 ACP         0.1067
     20 O2'         1.3993   -1.3703    0.5961 O.3       1 ACP        -0.6053
     21 C1'        -0.6159   -0.9100    1.8769 C.3       1 ACP         0.4223
     22 N9         -1.7127   -1.6108    1.2130 N.pl3     1 ACP        -0.6834
     23 C8         -2.8641   -1.0399    0.7392 C.ar      1 ACP         0.5614
     24 N7         -3.6659   -1.9257    0.1858 N.2       1 ACP        -0.5751
     25 C5         -3.0053   -3.1223    0.3069 C.ar      1 ACP        -0.2117
     26 C6         -3.3321   -4.4178   -0.0813 C.ar      1 ACP         0.7177
     27 N6         -4.5476   -4.6866   -0.7335 N.pl3     1 ACP        -0.9401
     28 N1         -2.4608   -5.4225    0.1773 N.ar      1 ACP        -0.8008
     29 C2         -1.3053   -5.1020    0.8081 C.ar      1 ACP         0.6565
     30 N3         -0.8788   -3.8921    1.2315 N.ar      1 ACP        -0.7061
     31 C4         -1.7870   -2.9477    0.9438 C.ar      1 ACP         0.5715
     32 HOG3        0.7997    7.2300   -2.2342 H         1 ACP         0.4226
     33 HOB2        0.1214    6.5250    4.3280 H         1 ACP         0.4482
     34 H3B1       -0.5657    8.5079    1.0269 H         1 ACP         0.1012
     35 H3B2       -1.7177    7.3771    0.3222 H         1 ACP         0.1012
     36 H5'1       -1.1770    2.0503    0.6369 H         1 ACP         0.0481
     37 H5'2       -0.2082    3.2815    1.4877 H         1 ACP         0.0481
     38 H4'         0.0403    1.7078    3.4343 H         1 ACP         0.0904
     39 H3'         1.5906    1.4859    1.1353 H         1 ACP         0.0809
     40 HO3'        2.6839   -0.1150    2.2479 H         1 ACP         0.4528
     41 H2'        -0.0017    0.0018    0.0005 H         1 ACP         0.0594
     42 HO2'        2.0953   -0.9375    0.0709 H         1 ACP         0.4344
     43 H1'        -0.1998   -1.6319    2.6178 H         1 ACP         0.1127
     44 H8         -3.0609    0.0200    0.8250 H         1 ACP         0.1050
     45 HN61       -5.2046   -3.9433   -0.8775 H         1 ACP         0.4211
     46 HN62       -4.7849   -5.6332   -0.9625 H         1 ACP         0.4211
     47 H2         -0.6318   -5.9307    0.9993 H         1 ACP         0.0375
@<TRIPOS>BOND
     1    1    2 2
     2    1    3 1
     3    1    4 1
     4    1    8 1
     5    4   32 1
     6    5    6 2
     7    5    7 1
     8    5    8 1
     9    5   12 1
    10    7   33 1
    11    8   34 1
    12    8   35 1
    13    9   10 2
    14    9   11 1
    15    9   12 1
    16    9   13 1
    17   13   14 1
    18   14   15 1
    19   14   36 1
    20   14   37 1
    21   15   16 1
    22   15   17 1
    23   15   38 1
    24   16   21 1
    25   17   18 1
    26   17   19 1
    27   17   39 1
    28   18   40 1
    29   19   20 1
    30   19   21 1
    31   19   41 1
    32   20   42 1
    33   21   22 1
    34   21   43 1
    35   22   23 ar
    36   22   31 ar
    37   23   24 ar
    38   23   44 1
    39   24   25 ar
    40   25   26 ar
    41   25   31 ar
    42   26   27 1
    43   26   28 ar
    44   27   45 1
    45   27   46 1
    46   28   29 ar
    47   29   30 ar
    48   29   47 1
    49   30   31 ar
@<TRIPOS>SUBSTRUCTURE
     1 ACP         1 GROUP 0 A     ****
@<TRIPOS>MOLECULE
[[[5-(6-aminopurin-9-yl)-3,4-dihydroxy-tetrahydrofuran-2-yl]methoxy-oxido-phosphoryl]oxy-hydroxy-phosphoryl]methyl-hydroxy-phosphinate
   47    49     1     0     0
SMALL
USER_CHARGES

@<TRIPOS>ATOM
      1 PG          8.2717    3.1281   -4.2487 P.3       1 ACP         1.3516
      2 O1G         8.5239    2.4107   -5.5545 O.co2     1 ACP        -0.8379
      3 O2G         8.8525    2.6474   -2.9390 O.co2     1 ACP        -0.8379
      4 O3G         8.5926    4.7166   -4.4326 O.3       1 ACP        -0.7980
      5 PB          5.6565    4.0326   -2.6065 P.3       1 ACP         1.7688
      6 O1B         4.1573    4.0238   -2.6251 O.2       1 ACP        -0.9167
      7 O2B         6.3264    5.5026   -2.5612 O.3       1 ACP        -0.8201
      8 C3B         6.4393    3.2488   -4.0322 C.3       1 ACP        -0.6097
      9 PA          6.2488    3.4955    0.2423 P.3       1 ACP         1.5979
     10 O1A         6.5597    4.9479    0.5318 O.co2     1 ACP        -0.8617
     11 O2A         6.9993    2.3884    0.9499 O.co2     1 ACP        -0.8617
     12 O3A         6.3499    3.2611   -1.3696 O.3       1 ACP        -0.8283
     13 O5'         4.6405    3.2701    0.4379 O.3       1 ACP        -0.5783
     14 C5'         4.0922    1.9801    0.2227 C.3       1 ACP         0.1980
     15 C4'         2.5944    2.0310    0.4653 C.3       1 ACP         0.0815
     16 O4'         1.9327    2.5740   -0.6889 O.3       1 ACP        -0.4127
     17 C3'         1.9685    0.6634    0.6767 C.3       1 ACP         0.0890
     18 O3'         2.1425    0.1975    1.9977 O.3       1 ACP        -0.6221
     19 C2'         0.5176    0.9128    0.3099 C.3       1 ACP         0.1067
     20 O2'        -0.2103    1.4454    1.4152 O.3       1 ACP        -0.6053
     21 C1'         0.6219    1.9765   -0.7844 C.3       1 ACP         0.4223
     22 N9          0.4237    1.4496   -2.1357 N.pl3     1 ACP        -0.6834
     23 C8          1.4026    0.9717   -2.9660 C.ar      1 ACP         0.5614
     24 N7          0.9183    0.5619   -4.1197 N.2       1 ACP        -0.5751
     25 C5         -0.4330    0.7845   -4.0331 C.ar      1 ACP        -0.2117
     26 C6         -1.4794    0.5615   -4.9225 C.ar      1 ACP         0.7177
     27 N6         -1.2378    0.0044   -6.1899 N.pl3     1 ACP        -0.9401
     28 N1         -2.7406    0.8885   -4.5512 N.ar      1 ACP        -0.8008
     29 C2         -2.9113    1.4216   -3.3172 C.ar      1 ACP         0.6565
     30 N3         -1.9824    1.6843   -2.3721 N.ar      1 ACP        -0.7061
     31 C4         -0.7613    1.3370   -2.8054 C.ar      1 ACP         0.5715
     32 HOG3        9.4994    4.9833   -4.6947 H         1 ACP         0.4226
     33 HOB2        6.1238    6.0938   -1.8053 H         1 ACP         0.4482
     34 H3B1        6.0606    3.7453   -4.9327 H         1 ACP         0.1012
     35 H3B2        6.0825    2.2137   -4.0631 H         1 ACP         0.1012
     36 H5'1        4.3030    1.6731   -0.8066 H         1 ACP         0.0481
     37 H5'2        4.5679    1.2740    0.9106 H         1 ACP         0.0481
     38 H4'         2.3751    2.7029    1.3156 H         1 ACP         0.0904
     39 H3'         2.4336   -0.1217   -0.0015 H         1 ACP         0.0809
     40 HO3'        1.7160   -0.6716    2.0397 H         1 ACP         0.4528
     41 H2'         0.0316    0.0155   -0.0339 H         1 ACP         0.0594
     42 HO2'       -0.1608    0.7921    2.1351 H         1 ACP         0.4344
     43 H1'        -0.1474    2.7798   -0.6651 H         1 ACP         0.1127
     44 H8          2.4442    0.9470   -2.6763 H         1 ACP         0.1050
     45 HN61       -0.2955   -0.1901   -6.4713 H         1 ACP         0.4211
     46 HN62       -1.9987   -0.1045   -6.8334 H         1 ACP         0.4211
     47 H2         -3.9335    1.6716   -3.0534 H         1 ACP         0.0375
@<TRIPOS>BOND
     1    1    2 2
     2    1    3 1
     3    1    4 1
     4    1    8 1
     5    4   32 1
     6    5    6 2
     7    5    7 1
     8    5    8 1
     9    5   12 1
    10    7   33 1
    11    8   34 1
    12    8   35 1
    13    9   10 2
    14    9   11 1
    15    9   12 1
    16    9   13 1
    17   13   14 1
    18   14   15 1
    19   14   36 1
    20   14   37 1
    21   15   16 1
    22   15   17 1
    23   15   38 1
    24   16   21 1
    25   17   18 1
    26   17   19 1
    27   17   39 1
    28   18   40 1
    29   19   20 1
    30   19   21 1
    31   19   41 1
    32   20   42 1
    33   21   22 1
    34   21   43 1
    35   22   23 ar
    36   22   31 ar
    37   23   24 ar
    38   23   44 1
    39   24   25 ar
    40   25   26 ar
    41   25   31 ar
    42   26   27 1
    43   26   28 ar
    44   27   45 1
    45   27   46 1
    46   28   29 ar
    47   29   30 ar
    48   29   47 1
    49   30   31 ar
@<TRIPOS>SUBSTRUCTURE
     1 ACP         1 GROUP 0 A     ****
@<TRIPOS>MOLECULE
[[[5-(6-aminopurin-9-yl)-3,4-dihydroxy-tetrahydrofuran-2-yl]methoxy-oxido-phosphoryl]oxy-hydroxy-phosphoryl]methyl-hydroxy-phosphinate
   47    49     1     0     0
SMALL
USER_CHARGES

@<TRIPOS>ATOM
      1 PG         -6.0175    2.7172    2.1425 P.3       1 ACP         1.3516
      2 O1G        -6.7841    3.0437    3.4031 O.co2     1 ACP        -0.8379
      3 O2G        -4.8571    1.7491    2.1321 O.co2     1 ACP        -0.8379
      4 O3G        -7.0661    2.3181    0.9588 O.3       1 ACP        -0.7980
      5 PB         -4.4408    4.4275   -0.0807 P.3       1 ACP         1.7688
      6 O1B        -4.0511    5.8193   -0.4799 O.2       1 ACP        -0.9167
      7 O2B        -5.3348    3.6344   -1.1685 O.3       1 ACP        -0.8201
      8 C3B        -5.4131    4.3157    1.4365 C.3       1 ACP        -0.6097
      9 PA         -1.9977    2.8866   -0.7226 P.3       1 ACP         1.5979
     10 O1A        -1.0854    4.0576   -1.0163 O.co2     1 ACP        -0.8617
     11 O2A        -2.5670    2.0491   -1.8470 O.co2     1 ACP        -0.8617
     12 O3A        -3.2211    3.4137    0.2202 O.3       1 ACP        -0.8283
     13 O5'        -1.2434    1.9102    0.3513 O.3       1 ACP        -0.5783
     14 C5'        -0.8811    2.4285    1.6206 C.3       1 ACP         0.1980
     15 C4'        -0.1994    1.3333    2.4288 C.3       1 ACP         0.0815
     16 O4'        -1.1285    0.2356    2.5840 O.3       1 ACP        -0.4127
     17 C3'         1.0324    0.7610    1.7344 C.3       1 ACP         0.0890
     18 O3'         1.9175    0.2377    2.7247 O.3       1 ACP        -0.6221
     19 C2'         0.4468   -0.3802    0.9263 C.3       1 ACP         0.1067
     20 O2'         1.3993   -1.3703    0.5961 O.3       1 ACP        -0.6053
     21 C1'        -0.6159   -0.9100    1.8769 C.3       1 ACP         0.4223
     22 N9         -1.7127   -1.6108    1.2130 N.pl3     1 ACP        -0.6834
     23 C8         -2.8641   -1.0399    0.7392 C.ar      1 ACP         0.5614
     24 N7         -3.6659   -1.9257    0.1858 N.2       1 ACP        -0.5751
     25 C5         -3.0053   -3.1223    0.3069 C.ar      1 ACP        -0.2117
     26 C6         -3.3321   -4.4178   -0.0813 C.ar      1 ACP         0.7177
     27 N6         -4.5476   -4.6866   -0.7335 N.pl3     1 ACP        -0.9401
     28 N1         -2.4608   -5.4225    0.1773 N.ar      1 ACP        -0.8008
     29 C2         -1.3053   -5.1020    0.8081 C.ar      1 ACP         0.6565
     30 N3         -0.8788   -3.8921    1.2315 N.ar      1 ACP        -0.7061
     31 C4         -1.7870   -2.9477    0.9438 C.ar      1 ACP         0.5715
     32 HOG3       -7.6589    1.5491    1.0986 H         1 ACP         0.4226
     33 HOB2       -4.9659    3.4787   -2.0639 H         1 ACP         0.4482
     34 H3B1       -6.3014    4.9445    1.3079 H         1 ACP         0.1012
     35 H3B2       -4.8134    4.7678    2.2337 H         1 ACP         0.1012
     36 H5'1       -0.2034    3.2760    1.4766 H         1 ACP         0.0481
     37 H5'2       -1.7842    2.7761    2.1321 H         1 ACP         0.0481
     38 H4'         0.0403    1.7078    3.4343 H         1 ACP         0.0904
     39 H3'         1.5906    1.4859    1.1353 H         1 ACP         0.0809
     40 HO3'        2.6839   -0.1150    2.2479 H         1 ACP         0.4528
     41 H2'        -0.0017    0.0018    0.0005 H         1 ACP         0.0594
     42 HO2'        2.0953   -0.9375    0.0709 H         1 ACP         0.4344
     43 H1'        -0.1998   -1.6319    2.6178 H         1 ACP         0.1127
     44 H8         -3.0609    0.0200    0.8250 H         1 ACP         0.1050
     45 HN61       -5.2046   -3.9433   -0.8775 H         1 ACP         0.4211
     46 HN62       -4.7849   -5.6332   -0.9625 H         1 ACP         0.4211
     47 H2         -0.6318   -5.9307    0.9993 H         1 ACP         0.0375
@<TRIPOS>BOND
     1    1    2 2
     2    1    3 1
     3    1    4 1
     4    1    8 1
     5    4   32 1
     6    5    6 2
     7    5    7 1
     8    5    8 1
     9    5   12 1
    10    7   33 1
    11    8   34 1
    12    8   35 1
    13    9   10 2
    14    9   11 1
    15    9   12 1
    16    9   13 1
    17   13   14 1
    18   14   15 1
    19   14   36 1
    20   14   37 1
    21   15   16 1
    22   15   17 1
    23   15   38 1
    24   16   21 1
    25   17   18 1
    26   17   19 1
    27   17   39 1
    28   18   40 1
    29   19   20 1
    30   19   21 1
    31   19   41 1
    32   20   42 1
    33   21   22 1
    34   21   43 1
    35   22   23 ar
    36   22   31 ar
    37   23   24 ar
    38   23   44 1
    39   24   25 ar
    40   25   26 ar
    41   25   31 ar
    42   26   27 1
    43   26   28 ar
    44   27   45 1
    45   27   46 1
    46   28   29 ar
    47   29   30 ar
    48   29   47 1
    49   30   31 ar
@<TRIPOS>SUBSTRUCTURE
     1 ACP         1 GROUP 0 A     ****
@<TRIPOS>MOLECULE
[[[5-(6-aminopurin-9-yl)-3,4-dihydroxy-tetrahydrofuran-2-yl]methoxy-oxido-phosphoryl]oxy-hydroxy-phosphoryl]methyl-hydroxy-phosphinate
   47    49     1     0     0
SMALL
USER_CHARGES

@<TRIPOS>ATOM
      1 PG          2.3448    3.9841   -2.6345 P.3       1 ACP         1.3516
      2 O1G         3.1641    5.2456   -2.4914 O.co2     1 ACP        -0.8379
      3 O2G         2.6915    2.9063   -3.6354 O.co2     1 ACP        -0.8379
      4 O3G         2.1280    3.3093   -1.1656 O.3       1 ACP        -0.7980
      5 PB         -0.3693    5.5016   -1.8069 P.3       1 ACP         1.7688
      6 O1B        -1.7671    5.8054   -2.2566 O.2       1 ACP        -0.9167
      7 O2B         0.5607    6.7994   -1.5570 O.3       1 ACP        -0.8201
      8 C3B         0.5970    4.4964   -2.9539 C.3       1 ACP        -0.6097
      9 PA         -0.7383    5.0057    1.0867 P.3       1 ACP         1.5979
     10 O1A        -2.2514    4.9889    1.1027 O.co2     1 ACP        -0.8617
     11 O2A         0.0270    6.2040    1.6044 O.co2     1 ACP        -0.8617
     12 O3A        -0.2379    4.6695   -0.4299 O.3       1 ACP        -0.8283
     13 O5'        -0.2060    3.6558    1.8418 O.3       1 ACP        -0.5783
     14 C5'        -0.8811    2.4285    1.6206 C.3       1 ACP         0.1980
     15 C4'        -0.1994    1.3333    2.4288 C.3       1 ACP         0.0815
     16 O4'        -1.1285    0.2356    2.5840 O.3       1 ACP        -0.4127
     17 C3'         1.0324    0.7610    1.7344 C.3       1 ACP         0.0890
     18 O3'         1.9175    0.2377    2.7247 O.3       1 ACP        -0.6221
     19 C2'         0.4468   -0.3802    0.9263 C.3       1 ACP         0.1067
     20 O2'         1.3993   -1.3703    0.5961 O.3       1 ACP        -0.6053
     21 C1'        -0.6159   -0.9100    1.8769 C.3       1 ACP         0.4223
     22 N9         -1.7127   -1.6108    1.2130 N.pl3     1 ACP        -0.6834
     23 C8         -2.5476   -1.0844    0.2632 C.ar      1 ACP         0.5614
     24 N7         -3.4391   -1.9591   -0.1536 N.2       1 ACP        -0.5751
     25 C5         -3.1701   -3.1016    0.5574 C.ar      1 ACP        -0.2117
     26 C6         -3.7593   -4.3620    0.5656 C.ar      1 ACP         0.7177
     27 N6         -4.8512   -4.6493   -0.2712 N.pl3     1 ACP        -0.9401
     28 N1         -3.2659   -5.3144    1.3932 N.ar      1 ACP        -0.8008
     29 C2         -2.2122   -4.9785    2.1759 C.ar      1 ACP         0.6565
     30 N3         -1.5595   -3.7985    2.2572 N.ar      1 ACP        -0.7061
     31 C4         -2.0986   -2.9054    1.4140 C.ar      1 ACP         0.5715
     32 HOG3        2.9198    3.0379   -0.6541 H         1 ACP         0.4226
     33 HOB2        0.2847    7.4595   -0.8861 H         1 ACP         0.4482
     34 H3B1        0.6051    5.0123   -3.9207 H         1 ACP         0.1012
     35 H3B2        0.0492    3.5587   -3.0958 H         1 ACP         0.1012
     36 H5'1       -1.9255    2.5382    1.9294 H         1 ACP         0.0481
     37 H5'2       -0.8473    2.1933    0.5521 H         1 ACP         0.0481
     38 H4'         0.0403    1.7078    3.4343 H         1 ACP         0.0904
     39 H3'         1.5906    1.4859    1.1353 H         1 ACP         0.0809
     40 HO3'        2.6839   -0.1150    2.2479 H         1 ACP         0.4528
     41 H2'        -0.0017    0.0018    0.0005 H         1 ACP         0.0594
     42 HO2'        2.0953   -0.9375    0.0709 H         1 ACP         0.4344
     43 H1'        -0.1998   -1.6319    2.6178 H         1 ACP         0.1127
     44 H8         -2.4576   -0.0639   -0.0831 H         1 ACP         0.1050
     45 HN61       -5.2371   -3.9234   -0.8448 H         1 ACP         0.4211
     46 HN62       -5.2909   -5.5485   -0.2160 H         1 ACP         0.4211
     47 H2         -1.8433   -5.7650    2.8259 H         1 ACP         0.0375
@<TRIPOS>BOND
     1    1    2 2
     2    1    3 1
     3    1    4 1
     4    1    8 1
     5    4   32 1
     6    5    6 2
     7    5    7 1
     8    5    8 1
     9    5   12 1
    10    7   33 1
    11    8   34 1
    12    8   35 1
    13    9   10 2
    14    9   11 1
    15    9   12 1
    16    9   13 1
    17   13   14 1
    18   14   15 1
    19   14   36 1
    20   14   37 1
    21   15   16 1
    22   15   17 1
    23   15   38 1
    24   16   21 1
    25   17   18 1
    26   17   19 1
    27   17   39 1
    28   18   40 1
    29   19   20 1
    30   19   21 1
    31   19   41 1
    32   20   42 1
    33   21   22 1
    34   21   43 1
    35   22   23 ar
    36   22   31 ar
    37   23   24 ar
    38   23   44 1
    39   24   25 ar
    40   25   26 ar
    41   25   31 ar
    42   26   27 1
    43   26   28 ar
    44   27   45 1
    45   27   46 1
    46   28   29 ar
    47   29   30 ar
    48   29   47 1
    49   30   31 ar
@<TRIPOS>SUBSTRUCTURE
     1 ACP         1 GROUP 0 A     ****
@<TRIPOS>MOLECULE
[[[5-(6-aminopurin-9-yl)-3,4-dihydroxy-tetrahydrofuran-2-yl]methoxy-oxido-phosphoryl]oxy-hydroxy-phosphoryl]methyl-hydroxy-phosphinate
   47    49     1     0     0
SMALL
USER_CHARGES

@<TRIPOS>ATOM
      1 PG         -4.4361    3.0490    4.7383 P.3       1 ACP         1.3516
      2 O1G        -3.2821    2.2377    4.1966 O.co2     1 ACP        -0.8379
      3 O2G        -5.7585    3.1536    4.0143 O.co2     1 ACP        -0.8379
      4 O3G        -4.7019    2.6408    6.2948 O.3       1 ACP        -0.7980
      5 PB         -3.1494    5.8090    3.6985 P.3       1 ACP         1.7688
      6 O1B        -2.7023    7.1718    4.1355 O.2       1 ACP        -0.9167
      7 O2B        -4.3133    5.8032    2.5774 O.3       1 ACP        -0.8201
      8 C3B        -3.8173    4.7693    5.0149 C.3       1 ACP        -0.6097
      9 PA         -1.0482    5.0555    1.7562 P.3       1 ACP         1.5979
     10 O1A        -0.0937    6.1972    2.0304 O.co2     1 ACP        -0.8617
     11 O2A        -1.9069    5.0480    0.5103 O.co2     1 ACP        -0.8617
     12 O3A        -2.0059    4.8628    3.0636 O.3       1 ACP        -0.8283
     13 O5'        -0.2060    3.6558    1.8418 O.3       1 ACP        -0.5783
     14 C5'        -0.8811    2.4285    1.6206 C.3       1 ACP         0.1980
     15 C4'        -0.1994    1.3333    2.4288 C.3       1 ACP         0.0815
     16 O4'        -1.1285    0.2356    2.5840 O.3       1 ACP        -0.4127
     17 C3'         1.0324    0.7610    1.7344 C.3       1 ACP         0.0890
     18 O3'         1.9175    0.2377    2.7247 O.3       1 ACP        -0.6221
     19 C2'         0.4468   -0.3802    0.9263 C.3       1 ACP         0.1067
     20 O2'         1.3993   -1.3703    0.5961 O.3       1 ACP        -0.6053
     21 C1'        -0.6159   -0.9100    1.8769 C.3       1 ACP         0.4223
     22 N9         -1.7127   -1.6108    1.2130 N.pl3     1 ACP        -0.6834
     23 C8         -2.5476   -1.0844    0.2632 C.ar      1 ACP         0.5614
     24 N7         -3.4391   -1.9591   -0.1536 N.2       1 ACP        -0.5751
     25 C5         -3.1701   -3.1016    0.5574 C.ar      1 ACP        -0.2117
     26 C6         -3.7593   -4.3620    0.5656 C.ar      1 ACP         0.7177
     27 N6         -4.8512   -4.6493   -0.2712 N.pl3     1 ACP        -0.9401
     28 N1         -3.2659   -5.3144    1.3932 N.ar      1 ACP        -0.8008
     29 C2         -2.2122   -4.9785    2.1759 C.ar      1 ACP         0.6565
     30 N3         -1.5595   -3.7985    2.2572 N.ar      1 ACP        -0.7061
     31 C4         -2.0986   -2.9054    1.4140 C.ar      1 ACP         0.5715
     32 HOG3       -4.9304    1.7096    6.5017 H         1 ACP         0.4226
     33 HOB2       -4.1419    6.2331    1.7126 H         1 ACP         0.4482
     34 H3B1       -4.6440    5.3165    5.4820 H         1 ACP         0.1012
     35 H3B2       -3.0319    4.6687    5.7715 H         1 ACP         0.1012
     36 H5'1       -1.9255    2.5382    1.9294 H         1 ACP         0.0481
     37 H5'2       -0.8473    2.1933    0.5521 H         1 ACP         0.0481
     38 H4'         0.0403    1.7078    3.4343 H         1 ACP         0.0904
     39 H3'         1.5906    1.4859    1.1353 H         1 ACP         0.0809
     40 HO3'        2.6839   -0.1150    2.2479 H         1 ACP         0.4528
     41 H2'        -0.0017    0.0018    0.0005 H         1 ACP         0.0594
     42 HO2'        2.0953   -0.9375    0.0709 H         1 ACP         0.4344
     43 H1'        -0.1998   -1.6319    2.6178 H         1 ACP         0.1127
     44 H8         -2.4576   -0.0639   -0.0831 H         1 ACP         0.1050
     45 HN61       -5.2371   -3.9234   -0.8448 H         1 ACP         0.4211
     46 HN62       -5.2909   -5.5485   -0.2160 H         1 ACP         0.4211
     47 H2         -1.8433   -5.7650    2.8259 H         1 ACP         0.0375
@<TRIPOS>BOND
     1    1    2 2
     2    1    3 1
     3    1    4 1
     4    1    8 1
     5    4   32 1
     6    5    6 2
     7    5    7 1
     8    5    8 1
     9    5   12 1
    10    7   33 1
    11    8   34 1
    12    8   35 1
    13    9   10 2
    14    9   11 1
    15    9   12 1
    16    9   13 1
    17   13   14 1
    18   14   15 1
    19   14   36 1
    20   14   37 1
    21   15   16 1
    22   15   17 1
    23   15   38 1
    24   16   21 1
    25   17   18 1
    26   17   19 1
    27   17   39 1
    28   18   40 1
    29   19   20 1
    30   19   21 1
    31   19   41 1
    32   20   42 1
    33   21   22 1
    34   21   43 1
    35   22   23 ar
    36   22   31 ar
    37   23   24 ar
    38   23   44 1
    39   24   25 ar
    40   25   26 ar
    41   25   31 ar
    42   26   27 1
    43   26   28 ar
    44   27   45 1
    45   27   46 1
    46   28   29 ar
    47   29   30 ar
    48   29   47 1
    49   30   31 ar
@<TRIPOS>SUBSTRUCTURE
     1 ACP         1 GROUP 0 A     ****
@<TRIPOS>MOLECULE
[[[5-(6-aminopurin-9-yl)-3,4-dihydroxy-tetrahydrofuran-2-yl]methoxy-oxido-phosphoryl]oxy-hydroxy-phosphoryl]methyl-hydroxy-phosphinate
   47    49     1     0     0
SMALL
USER_CHARGES

@<TRIPOS>ATOM
      1 PG         -0.1797    7.0883   -0.5084 P.3       1 ACP         1.3516
      2 O1G         0.8369    7.4600   -1.5628 O.co2     1 ACP        -0.8379
      3 O2G         0.1763    6.2433    0.6929 O.co2     1 ACP        -0.8379
      4 O3G        -0.9621    8.4309   -0.0131 O.3       1 ACP        -0.7980
      5 PB         -3.0515    5.6370   -0.5141 P.3       1 ACP         1.7688
      6 O1B        -4.0791    4.9988   -1.4000 O.2       1 ACP        -0.9167
      7 O2B        -3.5775    6.9140    0.3251 O.3       1 ACP        -0.8201
      8 C3B        -1.5898    6.2601   -1.3713 C.3       1 ACP        -0.6097
      9 PA         -3.0801    3.8628    1.8538 P.3       1 ACP         1.5979
     10 O1A        -3.9502    2.7657    1.2800 O.co2     1 ACP        -0.8617
     11 O2A        -3.6415    4.8527    2.8511 O.co2     1 ACP        -0.8617
     12 O3A        -2.4039    4.6816    0.6145 O.3       1 ACP        -0.8283
     13 O5'        -1.7337    3.1724    2.4753 O.3       1 ACP        -0.5783
     14 C5'        -0.8811    2.4285    1.6206 C.3       1 ACP         0.1980
     15 C4'        -0.1994    1.3333    2.4288 C.3       1 ACP         0.0815
     16 O4'        -1.1285    0.2356    2.5840 O.3       1 ACP        -0.4127
     17 C3'         1.0324    0.7610    1.7344 C.3       1 ACP         0.0890
     18 O3'         1.9175    0.2377    2.7247 O.3       1 ACP        -0.6221
     19 C2'         0.4468   -0.3802    0.9263 C.3       1 ACP         0.1067
     20 O2'         1.3993   -1.3703    0.5961 O.3       1 ACP        -0.6053
     21 C1'        -0.6159   -0.9100    1.8769 C.3       1 ACP         0.4223
     22 N9         -1.7127   -1.6108    1.2130 N.pl3     1 ACP        -0.6834
     23 C8         -2.0877   -2.9101    1.4304 C.ar      1 ACP         0.5614
     24 N7         -3.1152   -3.2613    0.6857 N.2       1 ACP        -0.5751
     25 C5         -3.4186   -2.1409   -0.0462 C.ar      1 ACP        -0.2117
     26 C6         -4.3953   -1.8809   -1.0023 C.ar      1 ACP         0.7177
     27 N6         -5.3118   -2.8767   -1.3812 N.pl3     1 ACP        -0.9401
     28 N1         -4.4538   -0.6507   -1.5667 N.ar      1 ACP        -0.8008
     29 C2         -3.5442    0.2679   -1.1609 C.ar      1 ACP         0.6565
     30 N3         -2.5561    0.1361   -0.2491 N.ar      1 ACP        -0.7061
     31 C4         -2.5568   -1.1019    0.2674 C.ar      1 ACP         0.5715
     32 HOG3       -0.4380    9.1567    0.3879 H         1 ACP         0.4226
     33 HOB2       -4.3222    6.7962    0.9525 H         1 ACP         0.4482
     34 H3B1       -1.9307    6.9646   -2.1383 H         1 ACP         0.1012
     35 H3B2       -1.1402    5.4095   -1.8948 H         1 ACP         0.1012
     36 H5'1       -1.4802    1.9928    0.8147 H         1 ACP         0.0481
     37 H5'2       -0.1369    3.1042    1.1873 H         1 ACP         0.0481
     38 H4'         0.0403    1.7078    3.4343 H         1 ACP         0.0904
     39 H3'         1.5906    1.4859    1.1353 H         1 ACP         0.0809
     40 HO3'        2.6839   -0.1150    2.2479 H         1 ACP         0.4528
     41 H2'        -0.0017    0.0018    0.0005 H         1 ACP         0.0594
     42 HO2'        2.0953   -0.9375    0.0709 H         1 ACP         0.4344
     43 H1'        -0.1998   -1.6319    2.6178 H         1 ACP         0.1127
     44 H8         -1.5778   -3.5473    2.1399 H         1 ACP         0.1050
     45 HN61       -5.2294   -3.7965   -0.9914 H         1 ACP         0.4211
     46 HN62       -5.9774   -2.6837   -2.1055 H         1 ACP         0.4211
     47 H2         -3.6201    1.2414   -1.6336 H         1 ACP         0.0375
@<TRIPOS>BOND
     1    1    2 2
     2    1    3 1
     3    1    4 1
     4    1    8 1
     5    4   32 1
     6    5    6 2
     7    5    7 1
     8    5    8 1
     9    5   12 1
    10    7   33 1
    11    8   34 1
    12    8   35 1
    13    9   10 2
    14    9   11 1
    15    9   12 1
    16    9   13 1
    17   13   14 1
    18   14   15 1
    19   14   36 1
    20   14   37 1
    21   15   16 1
    22   15   17 1
    23   15   38 1
    24   16   21 1
    25   17   18 1
    26   17   19 1
    27   17   39 1
    28   18   40 1
    29   19   20 1
    30   19   21 1
    31   19   41 1
    32   20   42 1
    33   21   22 1
    34   21   43 1
    35   22   23 ar
    36   22   31 ar
    37   23   24 ar
    38   23   44 1
    39   24   25 ar
    40   25   26 ar
    41   25   31 ar
    42   26   27 1
    43   26   28 ar
    44   27   45 1
    45   27   46 1
    46   28   29 ar
    47   29   30 ar
    48   29   47 1
    49   30   31 ar
@<TRIPOS>SUBSTRUCTURE
     1 ACP         1 GROUP 0 A     ****
@<TRIPOS>MOLECULE
[[[5-(6-aminopurin-9-yl)-3,4-dihydroxy-tetrahydrofuran-2-yl]methoxy-oxido-phosphoryl]oxy-hydroxy-phosphoryl]methyl-hydroxy-phosphinate
   47    49     1     0     0
SMALL
USER_CHARGES

@<TRIPOS>ATOM
      1 PG          5.6012    3.7471   -4.8530 P.3       1 ACP         1.3516
      2 O1G         4.4124    3.9146   -3.9355 O.co2     1 ACP        -0.8379
      3 O2G         5.4758    3.1473   -6.2344 O.co2     1 ACP        -0.8379
      4 O3G         6.4159    5.1569   -4.9469 O.3       1 ACP        -0.7980
      5 PB          7.6096    3.3046   -2.3782 P.3       1 ACP         1.7688
      6 O1B         8.3472    4.6082   -2.4473 O.2       1 ACP        -0.9167
      7 O2B         8.5065    2.0404   -1.9210 O.3       1 ACP        -0.8201
      8 C3B         6.8709    2.7653   -3.9348 C.3       1 ACP        -0.6097
      9 PA          6.2488    3.4955    0.2423 P.3       1 ACP         1.5979
     10 O1A         6.5597    4.9479    0.5318 O.co2     1 ACP        -0.8617
     11 O2A         6.9993    2.3884    0.9499 O.co2     1 ACP        -0.8617
     12 O3A         6.3499    3.2611   -1.3696 O.3       1 ACP        -0.8283
     13 O5'         4.6405    3.2701    0.4379 O.3       1 ACP        -0.5783
     14 C5'         4.0922    1.9801    0.2227 C.3       1 ACP         0.1980
     15 C4'         2.5944    2.0310    0.4653 C.3       1 ACP         0.0815
     16 O4'         1.9327    2.5740   -0.6889 O.3       1 ACP        -0.4127
     17 C3'         1.9685    0.6634    0.6767 C.3       1 ACP         0.0890
     18 O3'         2.1425    0.1975    1.9977 O.3       1 ACP        -0.6221
     19 C2'         0.5176    0.9128    0.3099 C.3       1 ACP         0.1067
     20 O2'        -0.2103    1.4454    1.4152 O.3       1 ACP        -0.6053
     21 C1'         0.6219    1.9765   -0.7844 C.3       1 ACP         0.4223
     22 N9          0.4237    1.4496   -2.1357 N.pl3     1 ACP        -0.6834
     23 C8          1.4026    0.9717   -2.9660 C.ar      1 ACP         0.5614
     24 N7          0.9183    0.5619   -4.1197 N.2       1 ACP        -0.5751
     25 C5         -0.4330    0.7845   -4.0331 C.ar      1 ACP        -0.2117
     26 C6         -1.4794    0.5615   -4.9225 C.ar      1 ACP         0.7177
     27 N6         -1.2378    0.0044   -6.1899 N.pl3     1 ACP        -0.9401
     28 N1         -2.7406    0.8885   -4.5512 N.ar      1 ACP        -0.8008
     29 C2         -2.9113    1.4216   -3.3172 C.ar      1 ACP         0.6565
     30 N3         -1.9824    1.6843   -2.3721 N.ar      1 ACP        -0.7061
     31 C4         -0.7613    1.3370   -2.8054 C.ar      1 ACP         0.5715
     32 HOG3        5.9452    5.9474   -5.2873 H         1 ACP         0.4226
     33 HOB2        8.9411    2.0595   -1.0418 H         1 ACP         0.4482
     34 H3B1        6.4258    1.7783   -3.7659 H         1 ACP         0.1012
     35 H3B2        7.6917    2.6288   -4.6470 H         1 ACP         0.1012
     36 H5'1        4.3030    1.6731   -0.8066 H         1 ACP         0.0481
     37 H5'2        4.5679    1.2740    0.9106 H         1 ACP         0.0481
     38 H4'         2.3751    2.7029    1.3156 H         1 ACP         0.0904
     39 H3'         2.4336   -0.1217   -0.0015 H         1 ACP         0.0809
     40 HO3'        1.7160   -0.6716    2.0397 H         1 ACP         0.4528
     41 H2'         0.0316    0.0155   -0.0339 H         1 ACP         0.0594
     42 HO2'       -0.1608    0.7921    2.1351 H         1 ACP         0.4344
     43 H1'        -0.1474    2.7798   -0.6651 H         1 ACP         0.1127
     44 H8          2.4442    0.9470   -2.6763 H         1 ACP         0.1050
     45 HN61       -0.2955   -0.1901   -6.4713 H         1 ACP         0.4211
     46 HN62       -1.9987   -0.1045   -6.8334 H         1 ACP         0.4211
     47 H2         -3.9335    1.6716   -3.0534 H         1 ACP         0.0375
@<TRIPOS>BOND
     1    1    2 2
     2    1    3 1
     3    1    4 1
     4    1    8 1
     5    4   32 1
     6    5    6 2
     7    5    7 1
     8    5    8 1
     9    5   12 1
    10    7   33 1
    11    8   34 1
    12    8   35 1
    13    9   10 2
    14    9   11 1
    15    9   12 1
    16    9   13 1
    17   13   14 1
    18   14   15 1
    19   14   36 1
    20   14   37 1
    21   15   16 1
    22   15   17 1
    23   15   38 1
    24   16   21 1
    25   17   18 1
    26   17   19 1
    27   17   39 1
    28   18   40 1
    29   19   20 1
    30   19   21 1
    31   19   41 1
    32   20   42 1
    33   21   22 1
    34   21   43 1
    35   22   23 ar
    36   22   31 ar
    37   23   24 ar
    38   23   44 1
    39   24   25 ar
    40   25   26 ar
    41   25   31 ar
    42   26   27 1
    43   26   28 ar
    44   27   45 1
    45   27   46 1
    46   28   29 ar
    47   29   30 ar
    48   29   47 1
    49   30   31 ar
@<TRIPOS>SUBSTRUCTURE
     1 ACP         1 GROUP 0 A     ****
@<TRIPOS>MOLECULE
[[[5-(6-aminopurin-9-yl)-3,4-dihydroxy-tetrahydrofuran-2-yl]methoxy-oxido-phosphoryl]oxy-hydroxy-phosphoryl]methyl-hydroxy-phosphinate
   47    49     1     0     0
SMALL
USER_CHARGES

@<TRIPOS>ATOM
      1 PG         -4.4361    3.0490    4.7383 P.3       1 ACP         1.3516
      2 O1G        -4.9076    2.5206    6.0731 O.co2     1 ACP        -0.8379
      3 O2G        -3.4057    2.3253    3.9026 O.co2     1 ACP        -0.8379
      4 O3G        -5.7287    3.4095    3.8112 O.3       1 ACP        -0.7980
      5 PB         -3.1494    5.8090    3.6985 P.3       1 ACP         1.7688
      6 O1B        -2.7023    7.1718    4.1355 O.2       1 ACP        -0.9167
      7 O2B        -4.3133    5.8032    2.5774 O.3       1 ACP        -0.8201
      8 C3B        -3.8173    4.7693    5.0149 C.3       1 ACP        -0.6097
      9 PA         -1.0482    5.0555    1.7562 P.3       1 ACP         1.5979
     10 O1A        -0.0937    6.1972    2.0304 O.co2     1 ACP        -0.8617
     11 O2A        -1.9069    5.0480    0.5103 O.co2     1 ACP        -0.8617
     12 O3A        -2.0059    4.8628    3.0636 O.3       1 ACP        -0.8283
     13 O5'        -0.2060    3.6558    1.8418 O.3       1 ACP        -0.5783
     14 C5'        -0.8811    2.4285    1.6206 C.3       1 ACP         0.1980
     15 C4'        -0.1994    1.3333    2.4288 C.3       1 ACP         0.0815
     16 O4'        -1.1285    0.2356    2.5840 O.3       1 ACP        -0.4127
     17 C3'         1.0324    0.7610    1.7344 C.3       1 ACP         0.0890
     18 O3'         1.9175    0.2377    2.7247 O.3       1 ACP        -0.6221
     19 C2'         0.4468   -0.3802    0.9263 C.3       1 ACP         0.1067
     20 O2'         1.3993   -1.3703    0.5961 O.3       1 ACP        -0.6053
     21 C1'        -0.6159   -0.9100    1.8769 C.3       1 ACP         0.4223
     22 N9         -1.7127   -1.6108    1.2130 N.pl3     1 ACP        -0.6834
     23 C8         -1.7712   -2.9546    0.9544 C.ar      1 ACP         0.5614
     24 N7         -2.8883   -3.2948    0.3462 N.2       1 ACP        -0.5751
     25 C5         -3.5834   -2.1202    0.2043 C.ar      1 ACP        -0.2117
     26 C6         -4.8225   -1.8251   -0.3554 C.ar      1 ACP         0.7177
     27 N6         -5.6154   -2.8395   -0.9189 N.pl3     1 ACP        -0.9401
     28 N1         -5.2589   -0.5425   -0.3507 N.ar      1 ACP        -0.8008
     29 C2         -4.4510    0.3913    0.2069 C.ar      1 ACP         0.6565
     30 N3         -3.2368    0.2296    0.7767 N.ar      1 ACP        -0.7061
     31 C4         -2.8684   -1.0596    0.7376 C.ar      1 ACP         0.5715
     32 HOG3       -6.3596    2.6920    3.5889 H         1 ACP         0.4226
     33 HOB2       -4.1419    6.2331    1.7126 H         1 ACP         0.4482
     34 H3B1       -4.6440    5.3165    5.4820 H         1 ACP         0.1012
     35 H3B2       -3.0319    4.6687    5.7715 H         1 ACP         0.1012
     36 H5'1       -1.9255    2.5382    1.9294 H         1 ACP         0.0481
     37 H5'2       -0.8473    2.1933    0.5521 H         1 ACP         0.0481
     38 H4'         0.0403    1.7078    3.4343 H         1 ACP         0.0904
     39 H3'         1.5906    1.4859    1.1353 H         1 ACP         0.0809
     40 HO3'        2.1521    0.9800    3.3017 H         1 ACP         0.4528
     41 H2'        -0.0017    0.0018    0.0005 H         1 ACP         0.0594
     42 HO2'        0.9369   -2.0558    0.0825 H         1 ACP         0.4344
     43 H1'        -0.1998   -1.6319    2.6178 H         1 ACP         0.1127
     44 H8         -0.9745   -3.6312    1.2318 H         1 ACP         0.1050
     45 HN61       -5.2619   -3.7766   -0.9586 H         1 ACP         0.4211
     46 HN62       -6.4834   -2.5990   -1.3590 H         1 ACP         0.4211
     47 H2         -4.8317    1.4071    0.1930 H         1 ACP         0.0375
@<TRIPOS>BOND
     1    1    2 2
     2    1    3 1
     3    1    4 1
     4    1    8 1
     5    4   32 1
     6    5    6 2
     7    5    7 1
     8    5    8 1
     9    5   12 1
    10    7   33 1
    11    8   34 1
    12    8   35 1
    13    9   10 2
    14    9   11 1
    15    9   12 1
    16    9   13 1
    17   13   14 1
    18   14   15 1
    19   14   36 1
    20   14   37 1
    21   15   16 1
    22   15   17 1
    23   15   38 1
    24   16   21 1
    25   17   18 1
    26   17   19 1
    27   17   39 1
    28   18   40 1
    29   19   20 1
    30   19   21 1
    31   19   41 1
    32   20   42 1
    33   21   22 1
    34   21   43 1
    35   22   23 ar
    36   22   31 ar
    37   23   24 ar
    38   23   44 1
    39   24   25 ar
    40   25   26 ar
    41   25   31 ar
    42   26   27 1
    43   26   28 ar
    44   27   45 1
    45   27   46 1
    46   28   29 ar
    47   29   30 ar
    48   29   47 1
    49   30   31 ar
@<TRIPOS>SUBSTRUCTURE
     1 ACP         1 GROUP 0 A     ****
@<TRIPOS>MOLECULE
[[[5-(6-aminopurin-9-yl)-3,4-dihydroxy-tetrahydrofuran-2-yl]methoxy-oxido-phosphoryl]oxy-hydroxy-phosphoryl]methyl-hydroxy-phosphinate
   47    49     1     0     0
SMALL
USER_CHARGES

@<TRIPOS>ATOM
      1 PG          1.2776    6.5929   -2.7194 P.3       1 ACP         1.3516
      2 O1G         2.4743    7.5143   -2.7671 O.co2     1 ACP        -0.8379
      3 O2G        -0.0044    6.9717   -2.0146 O.co2     1 ACP        -0.8379
      4 O3G         0.9336    6.0732   -4.2266 O.3       1 ACP        -0.7980
      5 PB          0.7604    3.5672   -1.7542 P.3       1 ACP         1.7688
      6 O1B         1.4234    2.3594   -1.1629 O.2       1 ACP        -0.9167
      7 O2B         0.0935    3.3326   -3.2075 O.3       1 ACP        -0.8201
      8 C3B         1.8489    4.9855   -2.0062 C.3       1 ACP        -0.6097
      9 PA         -0.4663    4.8326    0.6227 P.3       1 ACP         1.5979
     10 O1A        -1.9050    5.1225    0.9915 O.co2     1 ACP        -0.8617
     11 O2A         0.5913    5.9095    0.7295 O.co2     1 ACP        -0.8617
     12 O3A        -0.4395    4.2082   -0.8850 O.3       1 ACP        -0.8283
     13 O5'         0.0181    3.5132    1.4596 O.3       1 ACP        -0.5783
     14 C5'        -0.8811    2.4285    1.6206 C.3       1 ACP         0.1980
     15 C4'        -0.1994    1.3333    2.4288 C.3       1 ACP         0.0815
     16 O4'        -1.1285    0.2356    2.5840 O.3       1 ACP        -0.4127
     17 C3'         1.0324    0.7610    1.7344 C.3       1 ACP         0.0890
     18 O3'         1.9175    0.2377    2.7247 O.3       1 ACP        -0.6221
     19 C2'         0.4468   -0.3802    0.9263 C.3       1 ACP         0.1067
     20 O2'         1.3993   -1.3703    0.5961 O.3       1 ACP        -0.6053
     21 C1'        -0.6159   -0.9100    1.8769 C.3       1 ACP         0.4223
     22 N9         -1.7127   -1.6108    1.2130 N.pl3     1 ACP        -0.6834
     23 C8         -2.8641   -1.0399    0.7392 C.ar      1 ACP         0.5614
     24 N7         -3.6659   -1.9257    0.1858 N.2       1 ACP        -0.5751
     25 C5         -3.0053   -3.1223    0.3069 C.ar      1 ACP        -0.2117
     26 C6         -3.3321   -4.4178   -0.0813 C.ar      1 ACP         0.7177
     27 N6         -4.5476   -4.6866   -0.7335 N.pl3     1 ACP        -0.9401
     28 N1         -2.4608   -5.4225    0.1773 N.ar      1 ACP        -0.8008
     29 C2         -1.3053   -5.1020    0.8081 C.ar      1 ACP         0.6565
     30 N3         -0.8788   -3.8921    1.2315 N.ar      1 ACP        -0.7061
     31 C4         -1.7870   -2.9477    0.9438 C.ar      1 ACP         0.5715
     32 HOG3        0.7108    6.7391   -4.9116 H         1 ACP         0.4226
     33 HOB2       -0.6155    2.6615   -3.3020 H         1 ACP         0.4482
     34 H3B1        2.6832    4.6551   -2.6352 H         1 ACP         0.1012
     35 H3B2        2.2681    5.2436   -1.0278 H         1 ACP         0.1012
     36 H5'1       -1.7769    2.7851    2.1387 H         1 ACP         0.0481
     37 H5'2       -1.1653    2.0543    0.6320 H         1 ACP         0.0481
     38 H4'         0.0403    1.7078    3.4343 H         1 ACP         0.0904
     39 H3'         1.5906    1.4859    1.1353 H         1 ACP         0.0809
     40 HO3'        2.6839   -0.1150    2.2479 H         1 ACP         0.4528
     41 H2'        -0.0017    0.0018    0.0005 H         1 ACP         0.0594
     42 HO2'        2.0953   -0.9375    0.0709 H         1 ACP         0.4344
     43 H1'        -0.1998   -1.6319    2.6178 H         1 ACP         0.1127
     44 H8         -3.0609    0.0200    0.8250 H         1 ACP         0.1050
     45 HN61       -5.2046   -3.9433   -0.8775 H         1 ACP         0.4211
     46 HN62       -4.7849   -5.6332   -0.9625 H         1 ACP         0.4211
     47 H2         -0.6318   -5.9307    0.9993 H         1 ACP         0.0375
@<TRIPOS>BOND
     1    1    2 2
     2    1    3 1
     3    1    4 1
     4    1    8 1
     5    4   32 1
     6    5    6 2
     7    5    7 1
     8    5    8 1
     9    5   12 1
    10    7   33 1
    11    8   34 1
    12    8   35 1
    13    9   10 2
    14    9   11 1
    15    9   12 1
    16    9   13 1
    17   13   14 1
    18   14   15 1
    19   14   36 1
    20   14   37 1
    21   15   16 1
    22   15   17 1
    23   15   38 1
    24   16   21 1
    25   17   18 1
    26   17   19 1
    27   17   39 1
    28   18   40 1
    29   19   20 1
    30   19   21 1
    31   19   41 1
    32   20   42 1
    33   21   22 1
    34   21   43 1
    35   22   23 ar
    36   22   31 ar
    37   23   24 ar
    38   23   44 1
    39   24   25 ar
    40   25   26 ar
    41   25   31 ar
    42   26   27 1
    43   26   28 ar
    44   27   45 1
    45   27   46 1
    46   28   29 ar
    47   29   30 ar
    48   29   47 1
    49   30   31 ar
@<TRIPOS>SUBSTRUCTURE
     1 ACP         1 GROUP 0 A     ****
@<TRIPOS>MOLECULE
[[[5-(6-aminopurin-9-yl)-3,4-dihydroxy-tetrahydrofuran-2-yl]methoxy-oxido-phosphoryl]oxy-hydroxy-phosphoryl]methyl-hydroxy-phosphinate
   47    49     1     0     0
SMALL
USER_CHARGES

@<TRIPOS>ATOM
      1 PG         -5.1276    6.9366    2.2710 P.3       1 ACP         1.3516
      2 O1G        -4.5819    8.2787    2.7004 O.co2     1 ACP        -0.8379
      3 O2G        -6.6094    6.6414    2.2380 O.co2     1 ACP        -0.8379
      4 O3G        -4.4590    6.5108    0.8456 O.3       1 ACP        -0.7980
      5 PB         -2.5453    5.3833    3.3992 P.3       1 ACP         1.7688
      6 O1B        -2.1041    4.2913    4.3271 O.2       1 ACP        -0.9167
      7 O2B        -1.9491    6.8461    3.7402 O.3       1 ACP        -0.8201
      8 C3B        -4.3295    5.6521    3.3350 C.3       1 ACP        -0.6097
      9 PA         -0.7383    5.0057    1.0867 P.3       1 ACP         1.5979
     10 O1A         0.1534    6.1575    1.4965 O.co2     1 ACP        -0.8617
     11 O2A        -0.9823    4.6989   -0.3748 O.co2     1 ACP        -0.8617
     12 O3A        -2.1752    5.1761    1.8416 O.3       1 ACP        -0.8283
     13 O5'        -0.2060    3.6558    1.8418 O.3       1 ACP        -0.5783
     14 C5'        -0.8811    2.4285    1.6206 C.3       1 ACP         0.1980
     15 C4'        -0.1994    1.3333    2.4288 C.3       1 ACP         0.0815
     16 O4'        -1.1285    0.2356    2.5840 O.3       1 ACP        -0.4127
     17 C3'         1.0324    0.7610    1.7344 C.3       1 ACP         0.0890
     18 O3'         1.9175    0.2377    2.7247 O.3       1 ACP        -0.6221
     19 C2'         0.4468   -0.3802    0.9263 C.3       1 ACP         0.1067
     20 O2'         1.3993   -1.3703    0.5961 O.3       1 ACP        -0.6053
     21 C1'        -0.6159   -0.9100    1.8769 C.3       1 ACP         0.4223
     22 N9         -1.7127   -1.6108    1.2130 N.pl3     1 ACP        -0.6834
     23 C8         -2.0877   -2.9101    1.4304 C.ar      1 ACP         0.5614
     24 N7         -3.1152   -3.2613    0.6857 N.2       1 ACP        -0.5751
     25 C5         -3.4186   -2.1409   -0.0462 C.ar      1 ACP        -0.2117
     26 C6         -4.3953   -1.8809   -1.0023 C.ar      1 ACP         0.7177
     27 N6         -5.3118   -2.8767   -1.3812 N.pl3     1 ACP        -0.9401
     28 N1         -4.4538   -0.6507   -1.5667 N.ar      1 ACP        -0.8008
     29 C2         -3.5442    0.2679   -1.1609 C.ar      1 ACP         0.6565
     30 N3         -2.5561    0.1361   -0.2491 N.ar      1 ACP        -0.7061
     31 C4         -2.5568   -1.1019    0.2674 C.ar      1 ACP         0.5715
     32 HOG3       -4.5956    7.0971    0.0711 H         1 ACP         0.4226
     33 HOB2       -0.9768    6.9754    3.7368 H         1 ACP         0.4482
     34 H3B1       -4.6716    5.8509    4.3570 H         1 ACP         0.1012
     35 H3B2       -4.7837    4.7054    3.0237 H         1 ACP         0.1012
     36 H5'1       -1.9255    2.5382    1.9294 H         1 ACP         0.0481
     37 H5'2       -0.8473    2.1933    0.5521 H         1 ACP         0.0481
     38 H4'         0.0403    1.7078    3.4343 H         1 ACP         0.0904
     39 H3'         1.5906    1.4859    1.1353 H         1 ACP         0.0809
     40 HO3'        2.6839   -0.1150    2.2479 H         1 ACP         0.4528
     41 H2'        -0.0017    0.0018    0.0005 H         1 ACP         0.0594
     42 HO2'        0.9369   -2.0558    0.0825 H         1 ACP         0.4344
     43 H1'        -0.1998   -1.6319    2.6178 H         1 ACP         0.1127
     44 H8         -1.5778   -3.5473    2.1399 H         1 ACP         0.1050
     45 HN61       -5.2294   -3.7965   -0.9914 H         1 ACP         0.4211
     46 HN62       -5.9774   -2.6837   -2.1055 H         1 ACP         0.4211
     47 H2         -3.6201    1.2414   -1.6336 H         1 ACP         0.0375
@<TRIPOS>BOND
     1    1    2 2
     2    1    3 1
     3    1    4 1
     4    1    8 1
     5    4   32 1
     6    5    6 2
     7    5    7 1
     8    5    8 1
     9    5   12 1
    10    7   33 1
    11    8   34 1
    12    8   35 1
    13    9   10 2
    14    9   11 1
    15    9   12 1
    16    9   13 1
    17   13   14 1
    18   14   15 1
    19   14   36 1
    20   14   37 1
    21   15   16 1
    22   15   17 1
    23   15   38 1
    24   16   21 1
    25   17   18 1
    26   17   19 1
    27   17   39 1
    28   18   40 1
    29   19   20 1
    30   19   21 1
    31   19   41 1
    32   20   42 1
    33   21   22 1
    34   21   43 1
    35   22   23 ar
    36   22   31 ar
    37   23   24 ar
    38   23   44 1
    39   24   25 ar
    40   25   26 ar
    41   25   31 ar
    42   26   27 1
    43   26   28 ar
    44   27   45 1
    45   27   46 1
    46   28   29 ar
    47   29   30 ar
    48   29   47 1
    49   30   31 ar
@<TRIPOS>SUBSTRUCTURE
     1 ACP         1 GROUP 0 A     ****
@<TRIPOS>MOLECULE
[[[5-(6-aminopurin-9-yl)-3,4-dihydroxy-tetrahydrofuran-2-yl]methoxy-oxido-phosphoryl]oxy-hydroxy-phosphoryl]methyl-hydroxy-phosphinate
   47    49     1     0     0
SMALL
USER_CHARGES

@<TRIPOS>ATOM
      1 PG         -1.9886    7.4783   -0.4852 P.3       1 ACP         1.3516
      2 O1G        -1.2250    8.0153   -1.6734 O.co2     1 ACP        -0.8379
      3 O2G        -3.2788    8.1028   -0.0064 O.co2     1 ACP        -0.8379
      4 O3G        -2.1968    5.8699   -0.6570 O.3       1 ACP        -0.7980
      5 PB         -1.2898    6.8748    2.5972 P.3       1 ACP         1.7688
      6 O1B        -2.4058    7.6436    3.2387 O.2       1 ACP        -0.9167
      7 O2B         0.1029    6.8882    3.4170 O.3       1 ACP        -0.8201
      8 C3B        -0.8223    7.4453    0.9492 C.3       1 ACP        -0.6097
      9 PA         -1.9156    4.0919    3.3842 P.3       1 ACP         1.5979
     10 O1A        -3.2869    4.3461    3.9714 O.co2     1 ACP        -0.8617
     11 O2A        -0.7216    3.8543    4.2830 O.co2     1 ACP        -0.8617
     12 O3A        -1.5687    5.3044    2.3483 O.3       1 ACP        -0.8283
     13 O5'        -2.0402    2.8619    2.3131 O.3       1 ACP        -0.5783
     14 C5'        -0.8811    2.4285    1.6206 C.3       1 ACP         0.1980
     15 C4'        -0.1994    1.3333    2.4288 C.3       1 ACP         0.0815
     16 O4'        -1.1285    0.2356    2.5840 O.3       1 ACP        -0.4127
     17 C3'         1.0324    0.7610    1.7344 C.3       1 ACP         0.0890
     18 O3'         1.9175    0.2377    2.7247 O.3       1 ACP        -0.6221
     19 C2'         0.4468   -0.3802    0.9263 C.3       1 ACP         0.1067
     20 O2'         1.3993   -1.3703    0.5961 O.3       1 ACP        -0.6053
     21 C1'        -0.6159   -0.9100    1.8769 C.3       1 ACP         0.4223
     22 N9         -1.7127   -1.6108    1.2130 N.pl3     1 ACP        -0.6834
     23 C8         -1.7712   -2.9546    0.9544 C.ar      1 ACP         0.5614
     24 N7         -2.8883   -3.2948    0.3462 N.2       1 ACP        -0.5751
     25 C5         -3.5834   -2.1202    0.2043 C.ar      1 ACP        -0.2117
     26 C6         -4.8225   -1.8251   -0.3554 C.ar      1 ACP         0.7177
     27 N6         -5.6154   -2.8395   -0.9189 N.pl3     1 ACP        -0.9401
     28 N1         -5.2589   -0.5425   -0.3507 N.ar      1 ACP        -0.8008
     29 C2         -4.4510    0.3913    0.2069 C.ar      1 ACP         0.6565
     30 N3         -3.2368    0.2296    0.7767 N.ar      1 ACP        -0.7061
     31 C4         -2.8684   -1.0596    0.7376 C.ar      1 ACP         0.5715
     32 HOG3       -2.6884    5.5428   -1.4404 H         1 ACP         0.4226
     33 HOB2        0.1214    6.5250    4.3280 H         1 ACP         0.4482
     34 H3B1        0.0392    6.8507    0.6248 H         1 ACP         0.1012
     35 H3B2       -0.4762    8.4789    1.0557 H         1 ACP         0.1012
     36 H5'1       -1.1770    2.0503    0.6369 H         1 ACP         0.0481
     37 H5'2       -0.2082    3.2815    1.4877 H         1 ACP         0.0481
     38 H4'         0.0403    1.7078    3.4343 H         1 ACP         0.0904
     39 H3'         1.5906    1.4859    1.1353 H         1 ACP         0.0809
     40 HO3'        2.6839   -0.1150    2.2479 H         1 ACP         0.4528
     41 H2'        -0.0017    0.0018    0.0005 H         1 ACP         0.0594
     42 HO2'        2.0953   -0.9375    0.0709 H         1 ACP         0.4344
     43 H1'        -0.1998   -1.6319    2.6178 H         1 ACP         0.1127
     44 H8         -0.9745   -3.6312    1.2318 H         1 ACP         0.1050
     45 HN61       -5.2619   -3.7766   -0.9586 H         1 ACP         0.4211
     46 HN62       -6.4834   -2.5990   -1.3590 H         1 ACP         0.4211
     47 H2         -4.8317    1.4071    0.1930 H         1 ACP         0.0375
@<TRIPOS>BOND
     1    1    2 2
     2    1    3 1
     3    1    4 1
     4    1    8 1
     5    4   32 1
     6    5    6 2
     7    5    7 1
     8    5    8 1
     9    5   12 1
    10    7   33 1
    11    8   34 1
    12    8   35 1
    13    9   10 2
    14    9   11 1
    15    9   12 1
    16    9   13 1
    17   13   14 1
    18   14   15 1
    19   14   36 1
    20   14   37 1
    21   15   16 1
    22   15   17 1
    23   15   38 1
    24   16   21 1
    25   17   18 1
    26   17   19 1
    27   17   39 1
    28   18   40 1
    29   19   20 1
    30   19   21 1
    31   19   41 1
    32   20   42 1
    33   21   22 1
    34   21   43 1
    35   22   23 ar
    36   22   31 ar
    37   23   24 ar
    38   23   44 1
    39   24   25 ar
    40   25   26 ar
    41   25   31 ar
    42   26   27 1
    43   26   28 ar
    44   27   45 1
    45   27   46 1
    46   28   29 ar
    47   29   30 ar
    48   29   47 1
    49   30   31 ar
@<TRIPOS>SUBSTRUCTURE
     1 ACP         1 GROUP 0 A     ****
@<TRIPOS>MOLECULE
[[[5-(6-aminopurin-9-yl)-3,4-dihydroxy-tetrahydrofuran-2-yl]methoxy-oxido-phosphoryl]oxy-hydroxy-phosphoryl]methyl-hydroxy-phosphinate
   47    49     1     0     0
SMALL
USER_CHARGES

@<TRIPOS>ATOM
      1 PG         -0.8677    8.6530    1.8046 P.3       1 ACP         1.3516
      2 O1G        -0.0363    9.6492    1.0301 O.co2     1 ACP        -0.8379
      3 O2G        -0.3569    7.9754    3.0551 O.co2     1 ACP        -0.8379
      4 O3G        -2.3413    9.2880    2.0965 O.3       1 ACP        -0.7980
      5 PB         -2.3911    5.9084    1.0974 P.3       1 ACP         1.7688
      6 O1B        -2.6918    4.9470   -0.0132 O.2       1 ACP        -0.9167
      7 O2B        -3.6906    6.5792    1.7852 O.3       1 ACP        -0.8201
      8 C3B        -1.3779    7.3255    0.6230 C.3       1 ACP        -0.6097
      9 PA         -1.9156    4.0919    3.3842 P.3       1 ACP         1.5979
     10 O1A        -3.2869    4.3461    3.9714 O.co2     1 ACP        -0.8617
     11 O2A        -0.7216    3.8543    4.2830 O.co2     1 ACP        -0.8617
     12 O3A        -1.5687    5.3044    2.3483 O.3       1 ACP        -0.8283
     13 O5'        -2.0402    2.8619    2.3131 O.3       1 ACP        -0.5783
     14 C5'        -0.8811    2.4285    1.6206 C.3       1 ACP         0.1980
     15 C4'        -0.1994    1.3333    2.4288 C.3       1 ACP         0.0815
     16 O4'        -1.1285    0.2356    2.5840 O.3       1 ACP        -0.4127
     17 C3'         1.0324    0.7610    1.7344 C.3       1 ACP         0.0890
     18 O3'         1.9175    0.2377    2.7247 O.3       1 ACP        -0.6221
     19 C2'         0.4468   -0.3802    0.9263 C.3       1 ACP         0.1067
     20 O2'         1.3993   -1.3703    0.5961 O.3       1 ACP        -0.6053
     21 C1'        -0.6159   -0.9100    1.8769 C.3       1 ACP         0.4223
     22 N9         -1.7127   -1.6108    1.2130 N.pl3     1 ACP        -0.6834
     23 C8         -1.7712   -2.9546    0.9544 C.ar      1 ACP         0.5614
     24 N7         -2.8883   -3.2948    0.3462 N.2       1 ACP        -0.5751
     25 C5         -3.5834   -2.1202    0.2043 C.ar      1 ACP        -0.2117
     26 C6         -4.8225   -1.8251   -0.3554 C.ar      1 ACP         0.7177
     27 N6         -5.6154   -2.8395   -0.9189 N.pl3     1 ACP        -0.9401
     28 N1         -5.2589   -0.5425   -0.3507 N.ar      1 ACP        -0.8008
     29 C2         -4.4510    0.3913    0.2069 C.ar      1 ACP         0.6565
     30 N3         -3.2368    0.2296    0.7767 N.ar      1 ACP        -0.7061
     31 C4         -2.8684   -1.0596    0.7376 C.ar      1 ACP         0.5715
     32 HOG3       -2.3983   10.1193    2.6142 H         1 ACP         0.4226
     33 HOB2       -4.3554    5.9980    2.2121 H         1 ACP         0.4482
     34 H3B1       -1.8869    7.8351   -0.2029 H         1 ACP         0.1012
     35 H3B2       -0.4392    6.9269    0.2234 H         1 ACP         0.1012
     36 H5'1       -1.1770    2.0503    0.6369 H         1 ACP         0.0481
     37 H5'2       -0.2082    3.2815    1.4877 H         1 ACP         0.0481
     38 H4'         0.0403    1.7078    3.4343 H         1 ACP         0.0904
     39 H3'         1.5906    1.4859    1.1353 H         1 ACP         0.0809
     40 HO3'        2.6839   -0.1150    2.2479 H         1 ACP         0.4528
     41 H2'        -0.0017    0.0018    0.0005 H         1 ACP         0.0594
     42 HO2'        2.0953   -0.9375    0.0709 H         1 ACP         0.4344
     43 H1'        -0.1998   -1.6319    2.6178 H         1 ACP         0.1127
     44 H8         -0.9745   -3.6312    1.2318 H         1 ACP         0.1050
     45 HN61       -5.2619   -3.7766   -0.9586 H         1 ACP         0.4211
     46 HN62       -6.4834   -2.5990   -1.3590 H         1 ACP         0.4211
     47 H2         -4.8317    1.4071    0.1930 H         1 ACP         0.0375
@<TRIPOS>BOND
     1    1    2 2
     2    1    3 1
     3    1    4 1
     4    1    8 1
     5    4   32 1
     6    5    6 2
     7    5    7 1
     8    5    8 1
     9    5   12 1
    10    7   33 1
    11    8   34 1
    12    8   35 1
    13    9   10 2
    14    9   11 1
    15    9   12 1
    16    9   13 1
    17   13   14 1
    18   14   15 1
    19   14   36 1
    20   14   37 1
    21   15   16 1
    22   15   17 1
    23   15   38 1
    24   16   21 1
    25   17   18 1
    26   17   19 1
    27   17   39 1
    28   18   40 1
    29   19   20 1
    30   19   21 1
    31   19   41 1
    32   20   42 1
    33   21   22 1
    34   21   43 1
    35   22   23 ar
    36   22   31 ar
    37   23   24 ar
    38   23   44 1
    39   24   25 ar
    40   25   26 ar
    41   25   31 ar
    42   26   27 1
    43   26   28 ar
    44   27   45 1
    45   27   46 1
    46   28   29 ar
    47   29   30 ar
    48   29   47 1
    49   30   31 ar
@<TRIPOS>SUBSTRUCTURE
     1 ACP         1 GROUP 0 A     ****
@<TRIPOS>MOLECULE
[[[5-(6-aminopurin-9-yl)-3,4-dihydroxy-tetrahydrofuran-2-yl]methoxy-oxido-phosphoryl]oxy-hydroxy-phosphoryl]methyl-hydroxy-phosphinate
   47    49     1     0     0
SMALL
USER_CHARGES

@<TRIPOS>ATOM
      1 PG          3.6042   -1.5475   -2.2517 P.3       1 ACP         1.3516
      2 O1G         4.9127   -1.0269   -2.7995 O.co2     1 ACP        -0.8379
      3 O2G         3.5350   -2.7386   -1.3241 O.co2     1 ACP        -0.8379
      4 O3G         2.7556   -0.3115   -1.6098 O.3       1 ACP        -0.7980
      5 PB          1.9964   -0.6502   -4.8905 P.3       1 ACP         1.7688
      6 O1B         1.1038   -1.1486   -5.9874 O.2       1 ACP        -0.9167
      7 O2B         3.3921   -0.0069   -5.3904 O.3       1 ACP        -0.8201
      8 C3B         2.5061   -1.9043   -3.6959 C.3       1 ACP        -0.6097
      9 PA          0.8118    1.9900   -4.2728 P.3       1 ACP         1.5979
     10 O1A        -0.4443    1.8534   -5.1054 O.co2     1 ACP        -0.8617
     11 O2A         1.9624    2.8520   -4.7450 O.co2     1 ACP        -0.8617
     12 O3A         1.3706    0.4935   -3.9385 O.3       1 ACP        -0.8283
     13 O5'         0.3757    2.4481   -2.7643 O.3       1 ACP        -0.5783
     14 C5'        -0.7794    1.8744   -2.1748 C.3       1 ACP         0.1980
     15 C4'        -0.9699    2.4597   -0.7819 C.3       1 ACP         0.0815
     16 O4'        -2.1475    1.8640   -0.2014 O.3       1 ACP        -0.4127
     17 C3'         0.1697    2.1347    0.1695 C.3       1 ACP         0.0890
     18 O3'         0.1809    3.0982    1.2223 O.3       1 ACP        -0.6221
     19 C2'        -0.2543    0.7880    0.7187 C.3       1 ACP         0.1067
     20 O2'         0.3606    0.4944    1.9582 O.3       1 ACP        -0.6053
     21 C1'        -1.7682    0.9516    0.8548 C.3       1 ACP         0.4223
     22 N9         -2.5926   -0.2553    0.7436 N.pl3     1 ACP        -0.6834
     23 C8         -2.9796   -1.0650    1.7783 C.ar      1 ACP         0.5614
     24 N7         -3.7205   -2.0736    1.3689 N.2       1 ACP        -0.5751
     25 C5         -3.8171   -1.9102    0.0098 C.ar      1 ACP        -0.2117
     26 C6         -4.4622   -2.6452   -0.9798 C.ar      1 ACP         0.7177
     27 N6         -5.1910   -3.8019   -0.6548 N.pl3     1 ACP        -0.9401
     28 N1         -4.3799   -2.2309   -2.2672 N.ar      1 ACP        -0.8008
     29 C2         -3.6636   -1.1087   -2.5188 C.ar      1 ACP         0.6565
     30 N3         -2.9978   -0.3162   -1.6507 N.ar      1 ACP        -0.7061
     31 C4         -3.1216   -0.7837   -0.3994 C.ar      1 ACP         0.5715
     32 HOG3        3.1538    0.1952   -0.8702 H         1 ACP         0.4226
     33 HOB2        3.3698    0.7723   -5.9857 H         1 ACP         0.4482
     34 H3B1        2.9918   -2.7139   -4.2523 H         1 ACP         0.1012
     35 H3B2        1.5914   -2.3196   -3.2595 H         1 ACP         0.1012
     36 H5'1       -1.6463    2.0967   -2.8051 H         1 ACP         0.0481
     37 H5'2       -0.6469    0.7893   -2.1194 H         1 ACP         0.0481
     38 H4'        -1.1469    3.5409   -0.8522 H         1 ACP         0.0904
     39 H3'         1.1601    2.1310   -0.2934 H         1 ACP         0.0809
     40 HO3'        0.3098    3.9616    0.8017 H         1 ACP         0.4528
     41 H2'        -0.0024   -0.0091    0.0062 H         1 ACP         0.0594
     42 HO2'        0.0384   -0.3797    2.2403 H         1 ACP         0.4344
     43 H1'        -2.0584    1.4255    1.8301 H         1 ACP         0.1127
     44 H8         -2.6931   -0.8698    2.8026 H         1 ACP         0.1050
     45 HN61       -5.6874   -4.2906   -1.3757 H         1 ACP         0.4211
     46 HN62       -5.2842   -4.0717    0.3062 H         1 ACP         0.4211
     47 H2         -3.6188   -0.8065   -3.5598 H         1 ACP         0.0375
@<TRIPOS>BOND
     1    1    2 2
     2    1    3 1
     3    1    4 1
     4    1    8 1
     5    4   32 1
     6    5    6 2
     7    5    7 1
     8    5    8 1
     9    5   12 1
    10    7   33 1
    11    8   34 1
    12    8   35 1
    13    9   10 2
    14    9   11 1
    15    9   12 1
    16    9   13 1
    17   13   14 1
    18   14   15 1
    19   14   36 1
    20   14   37 1
    21   15   16 1
    22   15   17 1
    23   15   38 1
    24   16   21 1
    25   17   18 1
    26   17   19 1
    27   17   39 1
    28   18   40 1
    29   19   20 1
    30   19   21 1
    31   19   41 1
    32   20   42 1
    33   21   22 1
    34   21   43 1
    35   22   23 ar
    36   22   31 ar
    37   23   24 ar
    38   23   44 1
    39   24   25 ar
    40   25   26 ar
    41   25   31 ar
    42   26   27 1
    43   26   28 ar
    44   27   45 1
    45   27   46 1
    46   28   29 ar
    47   29   30 ar
    48   29   47 1
    49   30   31 ar
@<TRIPOS>SUBSTRUCTURE
     1 ACP         1 GROUP 0 A     ****
@<TRIPOS>MOLECULE
[[[5-(6-aminopurin-9-yl)-3,4-dihydroxy-tetrahydrofuran-2-yl]methoxy-oxido-phosphoryl]oxy-hydroxy-phosphoryl]methyl-hydroxy-phosphinate
   47    49     1     0     0
SMALL
USER_CHARGES

@<TRIPOS>ATOM
      1 PG         -2.5702    8.0193   -0.7253 P.3       1 ACP         1.3516
      2 O1G        -3.2584    6.9214   -1.5025 O.co2     1 ACP        -0.8379
      3 O2G        -1.7295    9.0792   -1.3989 O.co2     1 ACP        -0.8379
      4 O3G        -3.6457    8.7338    0.2711 O.3       1 ACP        -0.7980
      5 PB         -2.1726    6.1247    1.8450 P.3       1 ACP         1.7688
      6 O1B        -3.1754    6.7650    2.7574 O.2       1 ACP        -0.9167
      7 O2B        -0.8505    5.5569    2.5806 O.3       1 ACP        -0.8201
      8 C3B        -1.5155    7.2070    0.5579 C.3       1 ACP        -0.6097
      9 PA         -3.3165    3.4234    1.4577 P.3       1 ACP         1.5979
     10 O1A        -3.4792    2.5547    0.2293 O.co2     1 ACP        -0.8617
     11 O2A        -4.4804    3.6637    2.3942 O.co2     1 ACP        -0.8617
     12 O3A        -2.7035    4.8620    0.9906 O.3       1 ACP        -0.8283
     13 O5'        -2.0402    2.8619    2.3131 O.3       1 ACP        -0.5783
     14 C5'        -0.8811    2.4285    1.6206 C.3       1 ACP         0.1980
     15 C4'        -0.1994    1.3333    2.4288 C.3       1 ACP         0.0815
     16 O4'        -1.1285    0.2356    2.5840 O.3       1 ACP        -0.4127
     17 C3'         1.0324    0.7610    1.7344 C.3       1 ACP         0.0890
     18 O3'         1.9175    0.2377    2.7247 O.3       1 ACP        -0.6221
     19 C2'         0.4468   -0.3802    0.9263 C.3       1 ACP         0.1067
     20 O2'         1.3993   -1.3703    0.5961 O.3       1 ACP        -0.6053
     21 C1'        -0.6159   -0.9100    1.8769 C.3       1 ACP         0.4223
     22 N9         -1.7127   -1.6108    1.2130 N.pl3     1 ACP        -0.6834
     23 C8         -2.8641   -1.0399    0.7392 C.ar      1 ACP         0.5614
     24 N7         -3.6659   -1.9257    0.1858 N.2       1 ACP        -0.5751
     25 C5         -3.0053   -3.1223    0.3069 C.ar      1 ACP        -0.2117
     26 C6         -3.3321   -4.4178   -0.0813 C.ar      1 ACP         0.7177
     27 N6         -4.5476   -4.6866   -0.7335 N.pl3     1 ACP        -0.9401
     28 N1         -2.4608   -5.4225    0.1773 N.ar      1 ACP        -0.8008
     29 C2         -1.3053   -5.1020    0.8081 C.ar      1 ACP         0.6565
     30 N3         -0.8788   -3.8921    1.2315 N.ar      1 ACP        -0.7061
     31 C4         -1.7870   -2.9477    0.9438 C.ar      1 ACP         0.5715
     32 HOG3       -4.4355    9.1619   -0.1228 H         1 ACP         0.4226
     33 HOB2       -0.9498    4.8651    3.2688 H         1 ACP         0.4482
     34 H3B1       -0.7518    6.6439    0.0095 H         1 ACP         0.1012
     35 H3B2       -1.0028    8.0312    1.0653 H         1 ACP         0.1012
     36 H5'1       -1.1770    2.0503    0.6369 H         1 ACP         0.0481
     37 H5'2       -0.2082    3.2815    1.4877 H         1 ACP         0.0481
     38 H4'         0.0403    1.7078    3.4343 H         1 ACP         0.0904
     39 H3'         1.5906    1.4859    1.1353 H         1 ACP         0.0809
     40 HO3'        2.6839   -0.1150    2.2479 H         1 ACP         0.4528
     41 H2'        -0.0017    0.0018    0.0005 H         1 ACP         0.0594
     42 HO2'        2.0953   -0.9375    0.0709 H         1 ACP         0.4344
     43 H1'        -0.1998   -1.6319    2.6178 H         1 ACP         0.1127
     44 H8         -3.0609    0.0200    0.8250 H         1 ACP         0.1050
     45 HN61       -5.2046   -3.9433   -0.8775 H         1 ACP         0.4211
     46 HN62       -4.7849   -5.6332   -0.9625 H         1 ACP         0.4211
     47 H2         -0.6318   -5.9307    0.9993 H         1 ACP         0.0375
@<TRIPOS>BOND
     1    1    2 2
     2    1    3 1
     3    1    4 1
     4    1    8 1
     5    4   32 1
     6    5    6 2
     7    5    7 1
     8    5    8 1
     9    5   12 1
    10    7   33 1
    11    8   34 1
    12    8   35 1
    13    9   10 2
    14    9   11 1
    15    9   12 1
    16    9   13 1
    17   13   14 1
    18   14   15 1
    19   14   36 1
    20   14   37 1
    21   15   16 1
    22   15   17 1
    23   15   38 1
    24   16   21 1
    25   17   18 1
    26   17   19 1
    27   17   39 1
    28   18   40 1
    29   19   20 1
    30   19   21 1
    31   19   41 1
    32   20   42 1
    33   21   22 1
    34   21   43 1
    35   22   23 ar
    36   22   31 ar
    37   23   24 ar
    38   23   44 1
    39   24   25 ar
    40   25   26 ar
    41   25   31 ar
    42   26   27 1
    43   26   28 ar
    44   27   45 1
    45   27   46 1
    46   28   29 ar
    47   29   30 ar
    48   29   47 1
    49   30   31 ar
@<TRIPOS>SUBSTRUCTURE
     1 ACP         1 GROUP 0 A     ****
@<TRIPOS>MOLECULE
[[[5-(6-aminopurin-9-yl)-3,4-dihydroxy-tetrahydrofuran-2-yl]methoxy-oxido-phosphoryl]oxy-hydroxy-phosphoryl]methyl-hydroxy-phosphinate
   47    49     1     0     0
SMALL
USER_CHARGES

@<TRIPOS>ATOM
      1 PG         -2.0169   -2.6143   -3.2059 P.3       1 ACP         1.3516
      2 O1G        -2.7611   -3.7775   -2.5924 O.co2     1 ACP        -0.8379
      3 O2G        -1.5434   -1.4368   -2.3855 O.co2     1 ACP        -0.8379
      4 O3G        -0.7807   -3.1775   -4.1084 O.3       1 ACP        -0.7980
      5 PB         -2.5868   -0.5465   -5.6045 P.3       1 ACP         1.7688
      6 O1B        -3.5822   -0.1675   -6.6598 O.2       1 ACP        -0.9167
      7 O2B        -1.1289   -0.9622   -6.1642 O.3       1 ACP        -0.8201
      8 C3B        -3.0669   -1.9501   -4.5754 C.3       1 ACP        -0.6097
      9 PA         -1.6496    2.0939   -4.6531 P.3       1 ACP         1.5979
     10 O1A        -2.6633    2.9486   -5.3823 O.co2     1 ACP        -0.8617
     11 O2A        -0.2216    1.9994   -5.1446 O.co2     1 ACP        -0.8617
     12 O3A        -2.2614    0.5883   -4.5035 O.3       1 ACP        -0.8283
     13 O5'        -1.6519    2.5337   -3.0776 O.3       1 ACP        -0.5783
     14 C5'        -0.7794    1.8744   -2.1748 C.3       1 ACP         0.1980
     15 C4'        -0.9699    2.4597   -0.7819 C.3       1 ACP         0.0815
     16 O4'        -2.1475    1.8640   -0.2014 O.3       1 ACP        -0.4127
     17 C3'         0.1697    2.1347    0.1695 C.3       1 ACP         0.0890
     18 O3'         0.1809    3.0982    1.2223 O.3       1 ACP        -0.6221
     19 C2'        -0.2543    0.7880    0.7187 C.3       1 ACP         0.1067
     20 O2'         0.3606    0.4944    1.9582 O.3       1 ACP        -0.6053
     21 C1'        -1.7682    0.9516    0.8548 C.3       1 ACP         0.4223
     22 N9         -2.5926   -0.2553    0.7436 N.pl3     1 ACP        -0.6834
     23 C8         -3.5599   -0.4866   -0.1983 C.ar      1 ACP         0.5614
     24 N7         -4.1294   -1.6639   -0.0461 N.2       1 ACP        -0.5751
     25 C5         -3.5041   -2.2191    1.0420 C.ar      1 ACP        -0.2117
     26 C6         -3.6605   -3.4390    1.6925 C.ar      1 ACP         0.7177
     27 N6         -4.6108   -4.3735    1.2468 N.pl3     1 ACP        -0.9401
     28 N1         -2.8820   -3.7179    2.7657 N.ar      1 ACP        -0.8008
     29 C2         -1.9837   -2.7784    3.1481 C.ar      1 ACP         0.6565
     30 N3         -1.7408   -1.5668    2.6022 N.ar      1 ACP        -0.7061
     31 C4         -2.5438   -1.3578    1.5483 C.ar      1 ACP         0.5715
     32 HOG3       -0.0879   -3.7154   -3.6691 H         1 ACP         0.4226
     33 HOB2       -0.6151   -0.3076   -6.6835 H         1 ACP         0.4482
     34 H3B1       -3.2657   -2.7970   -5.2419 H         1 ACP         0.1012
     35 H3B2       -4.0178   -1.6867   -4.1000 H         1 ACP         0.1012
     36 H5'1       -1.0116    0.8047   -2.1754 H         1 ACP         0.0481
     37 H5'2        0.2522    2.0163   -2.5120 H         1 ACP         0.0481
     38 H4'        -1.1469    3.5409   -0.8522 H         1 ACP         0.0904
     39 H3'         1.1601    2.1310   -0.2934 H         1 ACP         0.0809
     40 HO3'        0.3098    3.9616    0.8017 H         1 ACP         0.4528
     41 H2'        -0.0024   -0.0091    0.0062 H         1 ACP         0.0594
     42 HO2'        0.0384   -0.3797    2.2403 H         1 ACP         0.4344
     43 H1'        -2.0584    1.4255    1.8301 H         1 ACP         0.1127
     44 H8         -3.8030    0.2355   -0.9657 H         1 ACP         0.1050
     45 HN61       -4.6753   -5.2653    1.6999 H         1 ACP         0.4211
     46 HN62       -5.1476   -4.1759    0.4235 H         1 ACP         0.4211
     47 H2         -1.3778   -3.0348    4.0107 H         1 ACP         0.0375
@<TRIPOS>BOND
     1    1    2 2
     2    1    3 1
     3    1    4 1
     4    1    8 1
     5    4   32 1
     6    5    6 2
     7    5    7 1
     8    5    8 1
     9    5   12 1
    10    7   33 1
    11    8   34 1
    12    8   35 1
    13    9   10 2
    14    9   11 1
    15    9   12 1
    16    9   13 1
    17   13   14 1
    18   14   15 1
    19   14   36 1
    20   14   37 1
    21   15   16 1
    22   15   17 1
    23   15   38 1
    24   16   21 1
    25   17   18 1
    26   17   19 1
    27   17   39 1
    28   18   40 1
    29   19   20 1
    30   19   21 1
    31   19   41 1
    32   20   42 1
    33   21   22 1
    34   21   43 1
    35   22   23 ar
    36   22   31 ar
    37   23   24 ar
    38   23   44 1
    39   24   25 ar
    40   25   26 ar
    41   25   31 ar
    42   26   27 1
    43   26   28 ar
    44   27   45 1
    45   27   46 1
    46   28   29 ar
    47   29   30 ar
    48   29   47 1
    49   30   31 ar
@<TRIPOS>SUBSTRUCTURE
     1 ACP         1 GROUP 0 A     ****
@<TRIPOS>MOLECULE
[[[5-(6-aminopurin-9-yl)-3,4-dihydroxy-tetrahydrofuran-2-yl]methoxy-oxido-phosphoryl]oxy-hydroxy-phosphoryl]methyl-hydroxy-phosphinate
   47    49     1     0     0
SMALL
USER_CHARGES

@<TRIPOS>ATOM
      1 PG          6.0533   -1.8686   -2.6832 P.3       1 ACP         1.3516
      2 O1G         5.5985   -3.2272   -3.1635 O.co2     1 ACP        -0.8379
      3 O2G         6.8398   -0.9240   -3.5623 O.co2     1 ACP        -0.8379
      4 O3G         4.7879   -1.0734   -2.0301 O.3       1 ACP        -0.7980
      5 PB          7.7838   -0.7860   -0.1958 P.3       1 ACP         1.7688
      6 O1B         8.7866    0.0310   -0.9542 O.2       1 ACP        -0.9167
      7 O2B         8.3625   -1.5175    1.1239 O.3       1 ACP        -0.8201
      8 C3B         7.0314   -2.1311   -1.1361 C.3       1 ACP        -0.6097
      9 PA          6.3567    1.2769    1.3738 P.3       1 ACP         1.5979
     10 O1A         6.9560    2.4959    0.7069 O.co2     1 ACP        -0.8617
     11 O2A         6.8130    0.8461    2.7507 O.co2     1 ACP        -0.8617
     12 O3A         6.4917    0.0137    0.3492 O.3       1 ACP        -0.8283
     13 O5'         4.7294    1.4426    1.3699 O.3       1 ACP        -0.5783
     14 C5'         4.0922    1.9801    0.2227 C.3       1 ACP         0.1980
     15 C4'         2.5944    2.0310    0.4653 C.3       1 ACP         0.0815
     16 O4'         1.9327    2.5740   -0.6889 O.3       1 ACP        -0.4127
     17 C3'         1.9685    0.6634    0.6767 C.3       1 ACP         0.0890
     18 O3'         2.1425    0.1975    1.9977 O.3       1 ACP        -0.6221
     19 C2'         0.5176    0.9128    0.3099 C.3       1 ACP         0.1067
     20 O2'        -0.2103    1.4454    1.4152 O.3       1 ACP        -0.6053
     21 C1'         0.6219    1.9765   -0.7844 C.3       1 ACP         0.4223
     22 N9          0.4237    1.4496   -2.1357 N.pl3     1 ACP        -0.6834
     23 C8          1.4026    0.9717   -2.9660 C.ar      1 ACP         0.5614
     24 N7          0.9183    0.5619   -4.1197 N.2       1 ACP        -0.5751
     25 C5         -0.4330    0.7845   -4.0331 C.ar      1 ACP        -0.2117
     26 C6         -1.4794    0.5615   -4.9225 C.ar      1 ACP         0.7177
     27 N6         -1.2378    0.0044   -6.1899 N.pl3     1 ACP        -0.9401
     28 N1         -2.7406    0.8885   -4.5512 N.ar      1 ACP        -0.8008
     29 C2         -2.9113    1.4216   -3.3172 C.ar      1 ACP         0.6565
     30 N3         -1.9824    1.6843   -2.3721 N.ar      1 ACP        -0.7061
     31 C4         -0.7613    1.3370   -2.8054 C.ar      1 ACP         0.5715
     32 HOG3        4.0074   -0.8916   -2.5958 H         1 ACP         0.4226
     33 HOB2        8.7432   -0.9692    1.8426 H         1 ACP         0.4482
     34 H3B1        6.3764   -2.6857   -0.4547 H         1 ACP         0.1012
     35 H3B2        7.8409   -2.8098   -1.4254 H         1 ACP         0.1012
     36 H5'1        4.4844    2.9853    0.0382 H         1 ACP         0.0481
     37 H5'2        4.3192    1.3445   -0.6390 H         1 ACP         0.0481
     38 H4'         2.3751    2.7029    1.3156 H         1 ACP         0.0904
     39 H3'         2.4336   -0.1217   -0.0015 H         1 ACP         0.0809
     40 HO3'        3.0987    0.1465    2.1461 H         1 ACP         0.4528
     41 H2'         0.0316    0.0155   -0.0339 H         1 ACP         0.0594
     42 HO2'       -0.1608    0.7921    2.1351 H         1 ACP         0.4344
     43 H1'        -0.1474    2.7798   -0.6651 H         1 ACP         0.1127
     44 H8          2.4442    0.9470   -2.6763 H         1 ACP         0.1050
     45 HN61       -0.2955   -0.1901   -6.4713 H         1 ACP         0.4211
     46 HN62       -1.9987   -0.1045   -6.8334 H         1 ACP         0.4211
     47 H2         -3.9335    1.6716   -3.0534 H         1 ACP         0.0375
@<TRIPOS>BOND
     1    1    2 2
     2    1    3 1
     3    1    4 1
     4    1    8 1
     5    4   32 1
     6    5    6 2
     7    5    7 1
     8    5    8 1
     9    5   12 1
    10    7   33 1
    11    8   34 1
    12    8   35 1
    13    9   10 2
    14    9   11 1
    15    9   12 1
    16    9   13 1
    17   13   14 1
    18   14   15 1
    19   14   36 1
    20   14   37 1
    21   15   16 1
    22   15   17 1
    23   15   38 1
    24   16   21 1
    25   17   18 1
    26   17   19 1
    27   17   39 1
    28   18   40 1
    29   19   20 1
    30   19   21 1
    31   19   41 1
    32   20   42 1
    33   21   22 1
    34   21   43 1
    35   22   23 ar
    36   22   31 ar
    37   23   24 ar
    38   23   44 1
    39   24   25 ar
    40   25   26 ar
    41   25   31 ar
    42   26   27 1
    43   26   28 ar
    44   27   45 1
    45   27   46 1
    46   28   29 ar
    47   29   30 ar
    48   29   47 1
    49   30   31 ar
@<TRIPOS>SUBSTRUCTURE
     1 ACP         1 GROUP 0 A     ****
@<TRIPOS>MOLECULE
[[[5-(6-aminopurin-9-yl)-3,4-dihydroxy-tetrahydrofuran-2-yl]methoxy-oxido-phosphoryl]oxy-hydroxy-phosphoryl]methyl-hydroxy-phosphinate
   47    49     1     0     0
SMALL
USER_CHARGES

@<TRIPOS>ATOM
      1 PG         -0.1666    8.2197    3.0200 P.3       1 ACP         1.3516
      2 O1G         0.6134    9.4851    2.7483 O.co2     1 ACP        -0.8379
      3 O2G         0.5074    6.8783    3.1939 O.co2     1 ACP        -0.8379
      4 O3G        -1.1956    8.4732    4.2597 O.3       1 ACP        -0.7980
      5 PB         -2.5842    6.6696    1.5687 P.3       1 ACP         1.7688
      6 O1B        -3.5127    6.7146    0.3922 O.2       1 ACP        -0.9167
      7 O2B        -3.3141    6.6824    3.0105 O.3       1 ACP        -0.8201
      8 C3B        -1.4154    8.0421    1.6680 C.3       1 ACP        -0.6097
      9 PA         -0.4663    4.8326    0.6227 P.3       1 ACP         1.5979
     10 O1A         0.6760    5.8249    0.6052 O.co2     1 ACP        -0.8617
     11 O2A        -1.1288    4.3936   -0.6650 O.co2     1 ACP        -0.8617
     12 O3A        -1.6097    5.3851    1.6478 O.3       1 ACP        -0.8283
     13 O5'         0.0181    3.5132    1.4596 O.3       1 ACP        -0.5783
     14 C5'        -0.8811    2.4285    1.6206 C.3       1 ACP         0.1980
     15 C4'        -0.1994    1.3333    2.4288 C.3       1 ACP         0.0815
     16 O4'        -1.1285    0.2356    2.5840 O.3       1 ACP        -0.4127
     17 C3'         1.0324    0.7610    1.7344 C.3       1 ACP         0.0890
     18 O3'         1.9175    0.2377    2.7247 O.3       1 ACP        -0.6221
     19 C2'         0.4468   -0.3802    0.9263 C.3       1 ACP         0.1067
     20 O2'         1.3993   -1.3703    0.5961 O.3       1 ACP        -0.6053
     21 C1'        -0.6159   -0.9100    1.8769 C.3       1 ACP         0.4223
     22 N9         -1.7127   -1.6108    1.2130 N.pl3     1 ACP        -0.6834
     23 C8         -1.7712   -2.9546    0.9544 C.ar      1 ACP         0.5614
     24 N7         -2.8883   -3.2948    0.3462 N.2       1 ACP        -0.5751
     25 C5         -3.5834   -2.1202    0.2043 C.ar      1 ACP        -0.2117
     26 C6         -4.8225   -1.8251   -0.3554 C.ar      1 ACP         0.7177
     27 N6         -5.6154   -2.8395   -0.9189 N.pl3     1 ACP        -0.9401
     28 N1         -5.2589   -0.5425   -0.3507 N.ar      1 ACP        -0.8008
     29 C2         -4.4510    0.3913    0.2069 C.ar      1 ACP         0.6565
     30 N3         -3.2368    0.2296    0.7767 N.ar      1 ACP        -0.7061
     31 C4         -2.8684   -1.0596    0.7376 C.ar      1 ACP         0.5715
     32 HOG3       -0.8246    8.7315    5.1303 H         1 ACP         0.4226
     33 HOB2       -3.9381    5.9592    3.2335 H         1 ACP         0.4482
     34 H3B1       -1.9954    8.9719    1.6681 H         1 ACP         0.1012
     35 H3B2       -0.8299    8.0300    0.7425 H         1 ACP         0.1012
     36 H5'1       -1.7769    2.7851    2.1387 H         1 ACP         0.0481
     37 H5'2       -1.1653    2.0543    0.6320 H         1 ACP         0.0481
     38 H4'         0.0403    1.7078    3.4343 H         1 ACP         0.0904
     39 H3'         1.5906    1.4859    1.1353 H         1 ACP         0.0809
     40 HO3'        2.6839   -0.1150    2.2479 H         1 ACP         0.4528
     41 H2'        -0.0017    0.0018    0.0005 H         1 ACP         0.0594
     42 HO2'        2.0953   -0.9375    0.0709 H         1 ACP         0.4344
     43 H1'        -0.1998   -1.6319    2.6178 H         1 ACP         0.1127
     44 H8         -0.9745   -3.6312    1.2318 H         1 ACP         0.1050
     45 HN61       -5.2619   -3.7766   -0.9586 H         1 ACP         0.4211
     46 HN62       -6.4834   -2.5990   -1.3590 H         1 ACP         0.4211
     47 H2         -4.8317    1.4071    0.1930 H         1 ACP         0.0375
@<TRIPOS>BOND
     1    1    2 2
     2    1    3 1
     3    1    4 1
     4    1    8 1
     5    4   32 1
     6    5    6 2
     7    5    7 1
     8    5    8 1
     9    5   12 1
    10    7   33 1
    11    8   34 1
    12    8   35 1
    13    9   10 2
    14    9   11 1
    15    9   12 1
    16    9   13 1
    17   13   14 1
    18   14   15 1
    19   14   36 1
    20   14   37 1
    21   15   16 1
    22   15   17 1
    23   15   38 1
    24   16   21 1
    25   17   18 1
    26   17   19 1
    27   17   39 1
    28   18   40 1
    29   19   20 1
    30   19   21 1
    31   19   41 1
    32   20   42 1
    33   21   22 1
    34   21   43 1
    35   22   23 ar
    36   22   31 ar
    37   23   24 ar
    38   23   44 1
    39   24   25 ar
    40   25   26 ar
    41   25   31 ar
    42   26   27 1
    43   26   28 ar
    44   27   45 1
    45   27   46 1
    46   28   29 ar
    47   29   30 ar
    48   29   47 1
    49   30   31 ar
@<TRIPOS>SUBSTRUCTURE
     1 ACP         1 GROUP 0 A     ****
@<TRIPOS>MOLECULE
[[[5-(6-aminopurin-9-yl)-3,4-dihydroxy-tetrahydrofuran-2-yl]methoxy-oxido-phosphoryl]oxy-hydroxy-phosphoryl]methyl-hydroxy-phosphinate
   47    49     1     0     0
SMALL
USER_CHARGES

@<TRIPOS>ATOM
      1 PG         -4.2678    5.9795   -2.2134 P.3       1 ACP         1.3516
      2 O1G        -4.1705    6.1658   -3.7098 O.co2     1 ACP        -0.8379
      3 O2G        -3.3891    6.7398   -1.2471 O.co2     1 ACP        -0.8379
      4 O3G        -5.8258    6.1160   -1.7506 O.3       1 ACP        -0.7980
      5 PB         -4.0810    3.4716   -0.2060 P.3       1 ACP         1.7688
      6 O1B        -3.8774    1.9874   -0.1452 O.2       1 ACP        -0.9167
      7 O2B        -5.4875    3.9894    0.3985 O.3       1 ACP        -0.8201
      8 C3B        -4.0431    4.1771   -1.8675 C.3       1 ACP        -0.6097
      9 PA         -2.5403    4.4097    2.1396 P.3       1 ACP         1.5979
     10 O1A        -3.7850    4.5996    2.9788 O.co2     1 ACP        -0.8617
     11 O2A        -1.3558    5.3389    2.2922 O.co2     1 ACP        -0.8617
     12 O3A        -2.9826    4.3653    0.5693 O.3       1 ACP        -0.8283
     13 O5'        -2.0402    2.8619    2.3131 O.3       1 ACP        -0.5783
     14 C5'        -0.8811    2.4285    1.6206 C.3       1 ACP         0.1980
     15 C4'        -0.1994    1.3333    2.4288 C.3       1 ACP         0.0815
     16 O4'        -1.1285    0.2356    2.5840 O.3       1 ACP        -0.4127
     17 C3'         1.0324    0.7610    1.7344 C.3       1 ACP         0.0890
     18 O3'         1.9175    0.2377    2.7247 O.3       1 ACP        -0.6221
     19 C2'         0.4468   -0.3802    0.9263 C.3       1 ACP         0.1067
     20 O2'         1.3993   -1.3703    0.5961 O.3       1 ACP        -0.6053
     21 C1'        -0.6159   -0.9100    1.8769 C.3       1 ACP         0.4223
     22 N9         -1.7127   -1.6108    1.2130 N.pl3     1 ACP        -0.6834
     23 C8         -2.5476   -1.0844    0.2632 C.ar      1 ACP         0.5614
     24 N7         -3.4391   -1.9591   -0.1536 N.2       1 ACP        -0.5751
     25 C5         -3.1701   -3.1016    0.5574 C.ar      1 ACP        -0.2117
     26 C6         -3.7593   -4.3620    0.5656 C.ar      1 ACP         0.7177
     27 N6         -4.8512   -4.6493   -0.2712 N.pl3     1 ACP        -0.9401
     28 N1         -3.2659   -5.3144    1.3932 N.ar      1 ACP        -0.8008
     29 C2         -2.2122   -4.9785    2.1759 C.ar      1 ACP         0.6565
     30 N3         -1.5595   -3.7985    2.2572 N.ar      1 ACP        -0.7061
     31 C4         -2.0986   -2.9054    1.4140 C.ar      1 ACP         0.5715
     32 HOG3       -6.2949    6.9586   -1.9299 H         1 ACP         0.4226
     33 HOB2       -5.6958    3.8076    1.3396 H         1 ACP         0.4482
     34 H3B1       -4.8006    3.6577   -2.4653 H         1 ACP         0.1012
     35 H3B2       -3.0679    3.9262   -2.2984 H         1 ACP         0.1012
     36 H5'1       -1.1770    2.0503    0.6369 H         1 ACP         0.0481
     37 H5'2       -0.2082    3.2815    1.4877 H         1 ACP         0.0481
     38 H4'         0.0403    1.7078    3.4343 H         1 ACP         0.0904
     39 H3'         1.5906    1.4859    1.1353 H         1 ACP         0.0809
     40 HO3'        2.1521    0.9800    3.3017 H         1 ACP         0.4528
     41 H2'        -0.0017    0.0018    0.0005 H         1 ACP         0.0594
     42 HO2'        0.9369   -2.0558    0.0825 H         1 ACP         0.4344
     43 H1'        -0.1998   -1.6319    2.6178 H         1 ACP         0.1127
     44 H8         -2.4576   -0.0639   -0.0831 H         1 ACP         0.1050
     45 HN61       -5.2371   -3.9234   -0.8448 H         1 ACP         0.4211
     46 HN62       -5.2909   -5.5485   -0.2160 H         1 ACP         0.4211
     47 H2         -1.8433   -5.7650    2.8259 H         1 ACP         0.0375
@<TRIPOS>BOND
     1    1    2 2
     2    1    3 1
     3    1    4 1
     4    1    8 1
     5    4   32 1
     6    5    6 2
     7    5    7 1
     8    5    8 1
     9    5   12 1
    10    7   33 1
    11    8   34 1
    12    8   35 1
    13    9   10 2
    14    9   11 1
    15    9   12 1
    16    9   13 1
    17   13   14 1
    18   14   15 1
    19   14   36 1
    20   14   37 1
    21   15   16 1
    22   15   17 1
    23   15   38 1
    24   16   21 1
    25   17   18 1
    26   17   19 1
    27   17   39 1
    28   18   40 1
    29   19   20 1
    30   19   21 1
    31   19   41 1
    32   20   42 1
    33   21   22 1
    34   21   43 1
    35   22   23 ar
    36   22   31 ar
    37   23   24 ar
    38   23   44 1
    39   24   25 ar
    40   25   26 ar
    41   25   31 ar
    42   26   27 1
    43   26   28 ar
    44   27   45 1
    45   27   46 1
    46   28   29 ar
    47   29   30 ar
    48   29   47 1
    49   30   31 ar
@<TRIPOS>SUBSTRUCTURE
     1 ACP         1 GROUP 0 A     ****
@<TRIPOS>MOLECULE
[[[5-(6-aminopurin-9-yl)-3,4-dihydroxy-tetrahydrofuran-2-yl]methoxy-oxido-phosphoryl]oxy-hydroxy-phosphoryl]methyl-hydroxy-phosphinate
   47    49     1     0     0
SMALL
USER_CHARGES

@<TRIPOS>ATOM
      1 PG         -0.7049    4.4114   -3.5725 P.3       1 ACP         1.3516
      2 O1G        -0.0853    3.3767   -2.6622 O.co2     1 ACP        -0.8379
      3 O2G         0.0967    5.5460   -4.1675 O.co2     1 ACP        -0.8379
      4 O3G        -1.5415    3.6615   -4.7548 O.3       1 ACP        -0.7980
      5 PB         -1.9677    6.0234   -1.0904 P.3       1 ACP         1.7688
      6 O1B        -3.2505    6.5532   -0.5229 O.2       1 ACP        -0.9167
      7 O2B        -0.8418    7.1445   -1.3859 O.3       1 ACP        -0.8201
      8 C3B        -2.1335    5.1571   -2.6658 C.3       1 ACP        -0.6097
      9 PA         -0.5788    5.0303    1.3262 P.3       1 ACP         1.5979
     10 O1A        -1.7294    5.1711    2.2989 O.co2     1 ACP        -0.8617
     11 O2A         0.5650    6.0209    1.3331 O.co2     1 ACP        -0.8617
     12 O3A        -1.1922    4.9364   -0.1832 O.3       1 ACP        -0.8283
     13 O5'         0.0181    3.5132    1.4596 O.3       1 ACP        -0.5783
     14 C5'        -0.8811    2.4285    1.6206 C.3       1 ACP         0.1980
     15 C4'        -0.1994    1.3333    2.4288 C.3       1 ACP         0.0815
     16 O4'        -1.1285    0.2356    2.5840 O.3       1 ACP        -0.4127
     17 C3'         1.0324    0.7610    1.7344 C.3       1 ACP         0.0890
     18 O3'         1.9175    0.2377    2.7247 O.3       1 ACP        -0.6221
     19 C2'         0.4468   -0.3802    0.9263 C.3       1 ACP         0.1067
     20 O2'         1.3993   -1.3703    0.5961 O.3       1 ACP        -0.6053
     21 C1'        -0.6159   -0.9100    1.8769 C.3       1 ACP         0.4223
     22 N9         -1.7127   -1.6108    1.2130 N.pl3     1 ACP        -0.6834
     23 C8         -2.8641   -1.0399    0.7392 C.ar      1 ACP         0.5614
     24 N7         -3.6659   -1.9257    0.1858 N.2       1 ACP        -0.5751
     25 C5         -3.0053   -3.1223    0.3069 C.ar      1 ACP        -0.2117
     26 C6         -3.3321   -4.4178   -0.0813 C.ar      1 ACP         0.7177
     27 N6         -4.5476   -4.6866   -0.7335 N.pl3     1 ACP        -0.9401
     28 N1         -2.4608   -5.4225    0.1773 N.ar      1 ACP        -0.8008
     29 C2         -1.3053   -5.1020    0.8081 C.ar      1 ACP         0.6565
     30 N3         -0.8788   -3.8921    1.2315 N.ar      1 ACP        -0.7061
     31 C4         -1.7870   -2.9477    0.9438 C.ar      1 ACP         0.5715
     32 HOG3       -1.0597    3.0543   -5.3559 H         1 ACP         0.4226
     33 HOB2       -0.5091    7.6910   -0.6424 H         1 ACP         0.4482
     34 H3B1       -2.6150    5.8430   -3.3720 H         1 ACP         0.1012
     35 H3B2       -2.8284    4.3266   -2.5016 H         1 ACP         0.1012
     36 H5'1       -1.7769    2.7851    2.1387 H         1 ACP         0.0481
     37 H5'2       -1.1653    2.0543    0.6320 H         1 ACP         0.0481
     38 H4'         0.0403    1.7078    3.4343 H         1 ACP         0.0904
     39 H3'         1.5906    1.4859    1.1353 H         1 ACP         0.0809
     40 HO3'        2.6839   -0.1150    2.2479 H         1 ACP         0.4528
     41 H2'        -0.0017    0.0018    0.0005 H         1 ACP         0.0594
     42 HO2'        0.9369   -2.0558    0.0825 H         1 ACP         0.4344
     43 H1'        -0.1998   -1.6319    2.6178 H         1 ACP         0.1127
     44 H8         -3.0609    0.0200    0.8250 H         1 ACP         0.1050
     45 HN61       -5.2046   -3.9433   -0.8775 H         1 ACP         0.4211
     46 HN62       -4.7849   -5.6332   -0.9625 H         1 ACP         0.4211
     47 H2         -0.6318   -5.9307    0.9993 H         1 ACP         0.0375
@<TRIPOS>BOND
     1    1    2 2
     2    1    3 1
     3    1    4 1
     4    1    8 1
     5    4   32 1
     6    5    6 2
     7    5    7 1
     8    5    8 1
     9    5   12 1
    10    7   33 1
    11    8   34 1
    12    8   35 1
    13    9   10 2
    14    9   11 1
    15    9   12 1
    16    9   13 1
    17   13   14 1
    18   14   15 1
    19   14   36 1
    20   14   37 1
    21   15   16 1
    22   15   17 1
    23   15   38 1
    24   16   21 1
    25   17   18 1
    26   17   19 1
    27   17   39 1
    28   18   40 1
    29   19   20 1
    30   19   21 1
    31   19   41 1
    32   20   42 1
    33   21   22 1
    34   21   43 1
    35   22   23 ar
    36   22   31 ar
    37   23   24 ar
    38   23   44 1
    39   24   25 ar
    40   25   26 ar
    41   25   31 ar
    42   26   27 1
    43   26   28 ar
    44   27   45 1
    45   27   46 1
    46   28   29 ar
    47   29   30 ar
    48   29   47 1
    49   30   31 ar
@<TRIPOS>SUBSTRUCTURE
     1 ACP         1 GROUP 0 A     ****
@<TRIPOS>MOLECULE
[[[5-(6-aminopurin-9-yl)-3,4-dihydroxy-tetrahydrofuran-2-yl]methoxy-oxido-phosphoryl]oxy-hydroxy-phosphoryl]methyl-hydroxy-phosphinate
   47    49     1     0     0
SMALL
USER_CHARGES

@<TRIPOS>ATOM
      1 PG         -5.3039    4.6989    0.1762 P.3       1 ACP         1.3516
      2 O1G        -5.7288    3.8200    1.3295 O.co2     1 ACP        -0.8379
      3 O2G        -4.5782    4.1509   -1.0309 O.co2     1 ACP        -0.8379
      4 O3G        -6.5729    5.5969   -0.3168 O.3       1 ACP        -0.7980
      5 PB         -2.7313    5.7774    1.7801 P.3       1 ACP         1.7688
      6 O1B        -2.8736    4.9497    3.0222 O.2       1 ACP        -0.9167
      7 O2B        -2.1462    7.2648    2.0188 O.3       1 ACP        -0.8201
      8 C3B        -4.2677    6.0614    0.8753 C.3       1 ACP        -0.6097
      9 PA         -0.1841    4.7791    0.6529 P.3       1 ACP         1.5979
     10 O1A         0.5954    5.9768    1.1506 O.co2     1 ACP        -0.8617
     11 O2A         0.1742    4.1138   -0.6581 O.co2     1 ACP        -0.8617
     12 O3A        -1.7686    5.1698    0.6355 O.3       1 ACP        -0.8283
     13 O5'        -0.2060    3.6558    1.8418 O.3       1 ACP        -0.5783
     14 C5'        -0.8811    2.4285    1.6206 C.3       1 ACP         0.1980
     15 C4'        -0.1994    1.3333    2.4288 C.3       1 ACP         0.0815
     16 O4'        -1.1285    0.2356    2.5840 O.3       1 ACP        -0.4127
     17 C3'         1.0324    0.7610    1.7344 C.3       1 ACP         0.0890
     18 O3'         1.9175    0.2377    2.7247 O.3       1 ACP        -0.6221
     19 C2'         0.4468   -0.3802    0.9263 C.3       1 ACP         0.1067
     20 O2'         1.3993   -1.3703    0.5961 O.3       1 ACP        -0.6053
     21 C1'        -0.6159   -0.9100    1.8769 C.3       1 ACP         0.4223
     22 N9         -1.7127   -1.6108    1.2130 N.pl3     1 ACP        -0.6834
     23 C8         -2.8641   -1.0399    0.7392 C.ar      1 ACP         0.5614
     24 N7         -3.6659   -1.9257    0.1858 N.2       1 ACP        -0.5751
     25 C5         -3.0053   -3.1223    0.3069 C.ar      1 ACP        -0.2117
     26 C6         -3.3321   -4.4178   -0.0813 C.ar      1 ACP         0.7177
     27 N6         -4.5476   -4.6866   -0.7335 N.pl3     1 ACP        -0.9401
     28 N1         -2.4608   -5.4225    0.1773 N.ar      1 ACP        -0.8008
     29 C2         -1.3053   -5.1020    0.8081 C.ar      1 ACP         0.6565
     30 N3         -0.8788   -3.8921    1.2315 N.ar      1 ACP        -0.7061
     31 C4         -1.7870   -2.9477    0.9438 C.ar      1 ACP         0.5715
     32 HOG3       -7.3772    5.1348   -0.6360 H         1 ACP         0.4226
     33 HOB2       -1.2560    7.3667    2.4178 H         1 ACP         0.4482
     34 H3B1       -4.0397    6.7288    0.0365 H         1 ACP         0.1012
     35 H3B2       -4.9371    6.6090    1.5474 H         1 ACP         0.1012
     36 H5'1       -1.9255    2.5382    1.9294 H         1 ACP         0.0481
     37 H5'2       -0.8473    2.1933    0.5521 H         1 ACP         0.0481
     38 H4'         0.0403    1.7078    3.4343 H         1 ACP         0.0904
     39 H3'         1.5906    1.4859    1.1353 H         1 ACP         0.0809
     40 HO3'        2.6839   -0.1150    2.2479 H         1 ACP         0.4528
     41 H2'        -0.0017    0.0018    0.0005 H         1 ACP         0.0594
     42 HO2'        2.0953   -0.9375    0.0709 H         1 ACP         0.4344
     43 H1'        -0.1998   -1.6319    2.6178 H         1 ACP         0.1127
     44 H8         -3.0609    0.0200    0.8250 H         1 ACP         0.1050
     45 HN61       -5.2046   -3.9433   -0.8775 H         1 ACP         0.4211
     46 HN62       -4.7849   -5.6332   -0.9625 H         1 ACP         0.4211
     47 H2         -0.6318   -5.9307    0.9993 H         1 ACP         0.0375
@<TRIPOS>BOND
     1    1    2 2
     2    1    3 1
     3    1    4 1
     4    1    8 1
     5    4   32 1
     6    5    6 2
     7    5    7 1
     8    5    8 1
     9    5   12 1
    10    7   33 1
    11    8   34 1
    12    8   35 1
    13    9   10 2
    14    9   11 1
    15    9   12 1
    16    9   13 1
    17   13   14 1
    18   14   15 1
    19   14   36 1
    20   14   37 1
    21   15   16 1
    22   15   17 1
    23   15   38 1
    24   16   21 1
    25   17   18 1
    26   17   19 1
    27   17   39 1
    28   18   40 1
    29   19   20 1
    30   19   21 1
    31   19   41 1
    32   20   42 1
    33   21   22 1
    34   21   43 1
    35   22   23 ar
    36   22   31 ar
    37   23   24 ar
    38   23   44 1
    39   24   25 ar
    40   25   26 ar
    41   25   31 ar
    42   26   27 1
    43   26   28 ar
    44   27   45 1
    45   27   46 1
    46   28   29 ar
    47   29   30 ar
    48   29   47 1
    49   30   31 ar
@<TRIPOS>SUBSTRUCTURE
     1 ACP         1 GROUP 0 A     ****
@<TRIPOS>MOLECULE
[[[5-(6-aminopurin-9-yl)-3,4-dihydroxy-tetrahydrofuran-2-yl]methoxy-oxido-phosphoryl]oxy-hydroxy-phosphoryl]methyl-hydroxy-phosphinate
   47    49     1     0     0
SMALL
USER_CHARGES

@<TRIPOS>ATOM
      1 PG         -4.4660    5.5059    4.5938 P.3       1 ACP         1.3516
      2 O1G        -4.2405    6.9052    5.1175 O.co2     1 ACP        -0.8379
      3 O2G        -3.5119    4.3713    4.8870 O.co2     1 ACP        -0.8379
      4 O3G        -5.9887    5.0362    4.9414 O.3       1 ACP        -0.7980
      5 PB         -3.3426    6.2792    1.6793 P.3       1 ACP         1.7688
      6 O1B        -2.9451    7.6979    1.9573 O.2       1 ACP        -0.9167
      7 O2B        -3.9127    6.0130    0.1907 O.3       1 ACP        -0.8201
      8 C3B        -4.6364    5.6269    2.7565 C.3       1 ACP        -0.6097
      9 PA         -0.7383    5.0057    1.0867 P.3       1 ACP         1.5979
     10 O1A         0.1534    6.1575    1.4965 O.co2     1 ACP        -0.8617
     11 O2A        -0.9823    4.6989   -0.3748 O.co2     1 ACP        -0.8617
     12 O3A        -2.1752    5.1761    1.8416 O.3       1 ACP        -0.8283
     13 O5'        -0.2060    3.6558    1.8418 O.3       1 ACP        -0.5783
     14 C5'        -0.8811    2.4285    1.6206 C.3       1 ACP         0.1980
     15 C4'        -0.1994    1.3333    2.4288 C.3       1 ACP         0.0815
     16 O4'        -1.1285    0.2356    2.5840 O.3       1 ACP        -0.4127
     17 C3'         1.0324    0.7610    1.7344 C.3       1 ACP         0.0890
     18 O3'         1.9175    0.2377    2.7247 O.3       1 ACP        -0.6221
     19 C2'         0.4468   -0.3802    0.9263 C.3       1 ACP         0.1067
     20 O2'         1.3993   -1.3703    0.5961 O.3       1 ACP        -0.6053
     21 C1'        -0.6159   -0.9100    1.8769 C.3       1 ACP         0.4223
     22 N9         -1.7127   -1.6108    1.2130 N.pl3     1 ACP        -0.6834
     23 C8         -2.5476   -1.0844    0.2632 C.ar      1 ACP         0.5614
     24 N7         -3.4391   -1.9591   -0.1536 N.2       1 ACP        -0.5751
     25 C5         -3.1701   -3.1016    0.5574 C.ar      1 ACP        -0.2117
     26 C6         -3.7593   -4.3620    0.5656 C.ar      1 ACP         0.7177
     27 N6         -4.8512   -4.6493   -0.2712 N.pl3     1 ACP        -0.9401
     28 N1         -3.2659   -5.3144    1.3932 N.ar      1 ACP        -0.8008
     29 C2         -2.2122   -4.9785    2.1759 C.ar      1 ACP         0.6565
     30 N3         -1.5595   -3.7985    2.2572 N.ar      1 ACP        -0.7061
     31 C4         -2.0986   -2.9054    1.4140 C.ar      1 ACP         0.5715
     32 HOG3       -6.2637    4.9997    5.8823 H         1 ACP         0.4226
     33 HOB2       -3.3362    6.2030   -0.5797 H         1 ACP         0.4482
     34 H3B1       -4.8794    4.6166    2.4083 H         1 ACP         0.1012
     35 H3B2       -5.5268    6.2439    2.5954 H         1 ACP         0.1012
     36 H5'1       -1.9255    2.5382    1.9294 H         1 ACP         0.0481
     37 H5'2       -0.8473    2.1933    0.5521 H         1 ACP         0.0481
     38 H4'         0.0403    1.7078    3.4343 H         1 ACP         0.0904
     39 H3'         1.5906    1.4859    1.1353 H         1 ACP         0.0809
     40 HO3'        2.6839   -0.1150    2.2479 H         1 ACP         0.4528
     41 H2'        -0.0017    0.0018    0.0005 H         1 ACP         0.0594
     42 HO2'        2.0953   -0.9375    0.0709 H         1 ACP         0.4344
     43 H1'        -0.1998   -1.6319    2.6178 H         1 ACP         0.1127
     44 H8         -2.4576   -0.0639   -0.0831 H         1 ACP         0.1050
     45 HN61       -5.2371   -3.9234   -0.8448 H         1 ACP         0.4211
     46 HN62       -5.2909   -5.5485   -0.2160 H         1 ACP         0.4211
     47 H2         -1.8433   -5.7650    2.8259 H         1 ACP         0.0375
@<TRIPOS>BOND
     1    1    2 2
     2    1    3 1
     3    1    4 1
     4    1    8 1
     5    4   32 1
     6    5    6 2
     7    5    7 1
     8    5    8 1
     9    5   12 1
    10    7   33 1
    11    8   34 1
    12    8   35 1
    13    9   10 2
    14    9   11 1
    15    9   12 1
    16    9   13 1
    17   13   14 1
    18   14   15 1
    19   14   36 1
    20   14   37 1
    21   15   16 1
    22   15   17 1
    23   15   38 1
    24   16   21 1
    25   17   18 1
    26   17   19 1
    27   17   39 1
    28   18   40 1
    29   19   20 1
    30   19   21 1
    31   19   41 1
    32   20   42 1
    33   21   22 1
    34   21   43 1
    35   22   23 ar
    36   22   31 ar
    37   23   24 ar
    38   23   44 1
    39   24   25 ar
    40   25   26 ar
    41   25   31 ar
    42   26   27 1
    43   26   28 ar
    44   27   45 1
    45   27   46 1
    46   28   29 ar
    47   29   30 ar
    48   29   47 1
    49   30   31 ar
@<TRIPOS>SUBSTRUCTURE
     1 ACP         1 GROUP 0 A     ****
@<TRIPOS>MOLECULE
[[[5-(6-aminopurin-9-yl)-3,4-dihydroxy-tetrahydrofuran-2-yl]methoxy-oxido-phosphoryl]oxy-hydroxy-phosphoryl]methyl-hydroxy-phosphinate
   47    49     1     0     0
SMALL
USER_CHARGES

@<TRIPOS>ATOM
      1 PG         -2.0315    3.1670   -8.1364 P.3       1 ACP         1.3516
      2 O1G        -0.6794    3.6060   -8.6486 O.co2     1 ACP        -0.8379
      3 O2G        -3.2998    3.3669   -8.9334 O.co2     1 ACP        -0.8379
      4 O3G        -1.9445    1.6167   -7.6373 O.3       1 ACP        -0.7980
      5 PB         -0.9696    4.1374   -5.2581 P.3       1 ACP         1.7688
      6 O1B        -1.3817    4.8153   -3.9857 O.2       1 ACP        -0.9167
      7 O2B         0.2193    4.8756   -6.0664 O.3       1 ACP        -0.8201
      8 C3B        -2.2808    3.9652   -6.4872 C.3       1 ACP        -0.6097
      9 PA          0.8118    1.9900   -4.2728 P.3       1 ACP         1.5979
     10 O1A         2.0649    2.7491   -4.6519 O.co2     1 ACP        -0.8617
     11 O2A         0.7623    0.4809   -4.3720 O.co2     1 ACP        -0.8617
     12 O3A        -0.4411    2.6194   -5.1080 O.3       1 ACP        -0.8283
     13 O5'         0.3757    2.4481   -2.7643 O.3       1 ACP        -0.5783
     14 C5'        -0.7794    1.8744   -2.1748 C.3       1 ACP         0.1980
     15 C4'        -0.9699    2.4597   -0.7819 C.3       1 ACP         0.0815
     16 O4'        -2.1475    1.8640   -0.2014 O.3       1 ACP        -0.4127
     17 C3'         0.1697    2.1347    0.1695 C.3       1 ACP         0.0890
     18 O3'         0.1809    3.0982    1.2223 O.3       1 ACP        -0.6221
     19 C2'        -0.2543    0.7880    0.7187 C.3       1 ACP         0.1067
     20 O2'         0.3606    0.4944    1.9582 O.3       1 ACP        -0.6053
     21 C1'        -1.7682    0.9516    0.8548 C.3       1 ACP         0.4223
     22 N9         -2.5926   -0.2553    0.7436 N.pl3     1 ACP        -0.6834
     23 C8         -2.6464   -1.0979   -0.3350 C.ar      1 ACP         0.5614
     24 N7         -3.4765   -2.1012   -0.1401 N.2       1 ACP        -0.5751
     25 C5         -3.9826   -1.8994    1.1194 C.ar      1 ACP        -0.2117
     26 C6         -4.8981   -2.6116    1.8877 C.ar      1 ACP         0.7177
     27 N6         -5.4931   -3.7842    1.3916 N.pl3     1 ACP        -0.9401
     28 N1         -5.2111   -2.1602    3.1262 N.ar      1 ACP        -0.8008
     29 C2         -4.6051   -1.0248    3.5500 C.ar      1 ACP         0.6565
     30 N3         -3.7075   -0.2510    2.9016 N.ar      1 ACP        -0.7061
     31 C4         -3.4448   -0.7551    1.6866 C.ar      1 ACP         0.5715
     32 HOG3       -1.6872    0.9294   -8.2882 H         1 ACP         0.4226
     33 HOB2        1.0875    4.9984   -5.6270 H         1 ACP         0.4482
     34 H3B1       -2.6760    4.9665   -6.6926 H         1 ACP         0.1012
     35 H3B2       -3.0870    3.3932   -6.0156 H         1 ACP         0.1012
     36 H5'1       -1.6463    2.0967   -2.8051 H         1 ACP         0.0481
     37 H5'2       -0.6469    0.7893   -2.1194 H         1 ACP         0.0481
     38 H4'        -1.1469    3.5409   -0.8522 H         1 ACP         0.0904
     39 H3'         1.1601    2.1310   -0.2934 H         1 ACP         0.0809
     40 HO3'        0.3098    3.9616    0.8017 H         1 ACP         0.4528
     41 H2'        -0.0024   -0.0091    0.0062 H         1 ACP         0.0594
     42 HO2'        0.0384   -0.3797    2.2403 H         1 ACP         0.4344
     43 H1'        -2.0584    1.4255    1.8301 H         1 ACP         0.1127
     44 H8         -2.0609   -0.9301   -1.2286 H         1 ACP         0.1050
     45 HN61       -5.2894   -4.0827    0.4566 H         1 ACP         0.4211
     46 HN62       -6.1852   -4.2564    1.9420 H         1 ACP         0.4211
     47 H2         -4.8793   -0.6924    4.5457 H         1 ACP         0.0375
@<TRIPOS>BOND
     1    1    2 2
     2    1    3 1
     3    1    4 1
     4    1    8 1
     5    4   32 1
     6    5    6 2
     7    5    7 1
     8    5    8 1
     9    5   12 1
    10    7   33 1
    11    8   34 1
    12    8   35 1
    13    9   10 2
    14    9   11 1
    15    9   12 1
    16    9   13 1
    17   13   14 1
    18   14   15 1
    19   14   36 1
    20   14   37 1
    21   15   16 1
    22   15   17 1
    23   15   38 1
    24   16   21 1
    25   17   18 1
    26   17   19 1
    27   17   39 1
    28   18   40 1
    29   19   20 1
    30   19   21 1
    31   19   41 1
    32   20   42 1
    33   21   22 1
    34   21   43 1
    35   22   23 ar
    36   22   31 ar
    37   23   24 ar
    38   23   44 1
    39   24   25 ar
    40   25   26 ar
    41   25   31 ar
    42   26   27 1
    43   26   28 ar
    44   27   45 1
    45   27   46 1
    46   28   29 ar
    47   29   30 ar
    48   29   47 1
    49   30   31 ar
@<TRIPOS>SUBSTRUCTURE
     1 ACP         1 GROUP 0 A     ****
@<TRIPOS>MOLECULE
[[[5-(6-aminopurin-9-yl)-3,4-dihydroxy-tetrahydrofuran-2-yl]methoxy-oxido-phosphoryl]oxy-hydroxy-phosphoryl]methyl-hydroxy-phosphinate
   47    49     1     0     0
SMALL
USER_CHARGES

@<TRIPOS>ATOM
      1 PG          6.5496   -2.5698    2.3253 P.3       1 ACP         1.3516
      2 O1G         6.6490   -2.7866    3.8175 O.co2     1 ACP        -0.8379
      3 O2G         6.8010   -3.6793    1.3305 O.co2     1 ACP        -0.8379
      4 O3G         5.1328   -1.8411    1.9770 O.3       1 ACP        -0.7980
      5 PB          7.8988   -0.5498    0.2150 P.3       1 ACP         1.7688
      6 O1B         8.4094   -1.5576   -0.7707 O.2       1 ACP        -0.9167
      7 O2B         8.8396    0.7502    0.4061 O.3       1 ACP        -0.8201
      8 C3B         7.6818   -1.1724    1.8958 C.3       1 ACP        -0.6097
      9 PA          5.8980    0.9306   -1.3851 P.3       1 ACP         1.5979
     10 O1A         5.8858    0.0210   -2.5944 O.co2     1 ACP        -0.8617
     11 O2A         6.6098    2.2652   -1.4287 O.co2     1 ACP        -0.8617
     12 O3A         6.4463    0.0768   -0.1069 O.3       1 ACP        -0.8283
     13 O5'         4.3515    1.1573   -0.9028 O.3       1 ACP        -0.5783
     14 C5'         4.0922    1.9801    0.2227 C.3       1 ACP         0.1980
     15 C4'         2.5944    2.0310    0.4653 C.3       1 ACP         0.0815
     16 O4'         1.9327    2.5740   -0.6889 O.3       1 ACP        -0.4127
     17 C3'         1.9685    0.6634    0.6767 C.3       1 ACP         0.0890
     18 O3'         2.1425    0.1975    1.9977 O.3       1 ACP        -0.6221
     19 C2'         0.5176    0.9128    0.3099 C.3       1 ACP         0.1067
     20 O2'        -0.2103    1.4454    1.4152 O.3       1 ACP        -0.6053
     21 C1'         0.6219    1.9765   -0.7844 C.3       1 ACP         0.4223
     22 N9          0.4237    1.4496   -2.1357 N.pl3     1 ACP        -0.6834
     23 C8          1.4026    0.9717   -2.9660 C.ar      1 ACP         0.5614
     24 N7          0.9183    0.5619   -4.1197 N.2       1 ACP        -0.5751
     25 C5         -0.4330    0.7845   -4.0331 C.ar      1 ACP        -0.2117
     26 C6         -1.4794    0.5615   -4.9225 C.ar      1 ACP         0.7177
     27 N6         -1.2378    0.0044   -6.1899 N.pl3     1 ACP        -0.9401
     28 N1         -2.7406    0.8885   -4.5512 N.ar      1 ACP        -0.8008
     29 C2         -2.9113    1.4216   -3.3172 C.ar      1 ACP         0.6565
     30 N3         -1.9824    1.6843   -2.3721 N.ar      1 ACP        -0.7061
     31 C4         -0.7613    1.3370   -2.8054 C.ar      1 ACP         0.5715
     32 HOG3        4.2995   -2.2978    2.2205 H         1 ACP         0.4226
     33 HOB2        9.0248    1.3207   -0.3700 H         1 ACP         0.4482
     34 H3B1        7.3732   -0.3292    2.5242 H         1 ACP         0.1012
     35 H3B2        8.6689   -1.4900    2.2483 H         1 ACP         0.1012
     36 H5'1        4.6070    1.5616    1.0933 H         1 ACP         0.0481
     37 H5'2        4.4825    2.9835    0.0252 H         1 ACP         0.0481
     38 H4'         2.3751    2.7029    1.3156 H         1 ACP         0.0904
     39 H3'         2.4336   -0.1217   -0.0015 H         1 ACP         0.0809
     40 HO3'        1.7160   -0.6716    2.0397 H         1 ACP         0.4528
     41 H2'         0.0316    0.0155   -0.0339 H         1 ACP         0.0594
     42 HO2'       -0.1608    0.7921    2.1351 H         1 ACP         0.4344
     43 H1'        -0.1474    2.7798   -0.6651 H         1 ACP         0.1127
     44 H8          2.4442    0.9470   -2.6763 H         1 ACP         0.1050
     45 HN61       -0.2955   -0.1901   -6.4713 H         1 ACP         0.4211
     46 HN62       -1.9987   -0.1045   -6.8334 H         1 ACP         0.4211
     47 H2         -3.9335    1.6716   -3.0534 H         1 ACP         0.0375
@<TRIPOS>BOND
     1    1    2 2
     2    1    3 1
     3    1    4 1
     4    1    8 1
     5    4   32 1
     6    5    6 2
     7    5    7 1
     8    5    8 1
     9    5   12 1
    10    7   33 1
    11    8   34 1
    12    8   35 1
    13    9   10 2
    14    9   11 1
    15    9   12 1
    16    9   13 1
    17   13   14 1
    18   14   15 1
    19   14   36 1
    20   14   37 1
    21   15   16 1
    22   15   17 1
    23   15   38 1
    24   16   21 1
    25   17   18 1
    26   17   19 1
    27   17   39 1
    28   18   40 1
    29   19   20 1
    30   19   21 1
    31   19   41 1
    32   20   42 1
    33   21   22 1
    34   21   43 1
    35   22   23 ar
    36   22   31 ar
    37   23   24 ar
    38   23   44 1
    39   24   25 ar
    40   25   26 ar
    41   25   31 ar
    42   26   27 1
    43   26   28 ar
    44   27   45 1
    45   27   46 1
    46   28   29 ar
    47   29   30 ar
    48   29   47 1
    49   30   31 ar
@<TRIPOS>SUBSTRUCTURE
     1 ACP         1 GROUP 0 A     ****
@<TRIPOS>MOLECULE
[[[5-(6-aminopurin-9-yl)-3,4-dihydroxy-tetrahydrofuran-2-yl]methoxy-oxido-phosphoryl]oxy-hydroxy-phosphoryl]methyl-hydroxy-phosphinate
   47    49     1     0     0
SMALL
USER_CHARGES

@<TRIPOS>ATOM
      1 PG          0.5225    6.6676   -0.0536 P.3       1 ACP         1.3516
      2 O1G         0.1408    5.2222   -0.2737 O.co2     1 ACP        -0.8379
      3 O2G         1.8407    7.0682    0.5672 O.co2     1 ACP        -0.8379
      4 O3G         0.2990    7.5034   -1.4362 O.3       1 ACP        -0.7980
      5 PB         -1.2898    6.8748    2.5972 P.3       1 ACP         1.7688
      6 O1B        -2.4058    7.6436    3.2387 O.2       1 ACP        -0.9167
      7 O2B         0.1029    6.8882    3.4170 O.3       1 ACP        -0.8201
      8 C3B        -0.8223    7.4453    0.9492 C.3       1 ACP        -0.6097
      9 PA         -1.9156    4.0919    3.3842 P.3       1 ACP         1.5979
     10 O1A        -3.2869    4.3461    3.9714 O.co2     1 ACP        -0.8617
     11 O2A        -0.7216    3.8543    4.2830 O.co2     1 ACP        -0.8617
     12 O3A        -1.5687    5.3044    2.3483 O.3       1 ACP        -0.8283
     13 O5'        -2.0402    2.8619    2.3131 O.3       1 ACP        -0.5783
     14 C5'        -0.8811    2.4285    1.6206 C.3       1 ACP         0.1980
     15 C4'        -0.1994    1.3333    2.4288 C.3       1 ACP         0.0815
     16 O4'        -1.1285    0.2356    2.5840 O.3       1 ACP        -0.4127
     17 C3'         1.0324    0.7610    1.7344 C.3       1 ACP         0.0890
     18 O3'         1.9175    0.2377    2.7247 O.3       1 ACP        -0.6221
     19 C2'         0.4468   -0.3802    0.9263 C.3       1 ACP         0.1067
     20 O2'         1.3993   -1.3703    0.5961 O.3       1 ACP        -0.6053
     21 C1'        -0.6159   -0.9100    1.8769 C.3       1 ACP         0.4223
     22 N9         -1.7127   -1.6108    1.2130 N.pl3     1 ACP        -0.6834
     23 C8         -1.7712   -2.9546    0.9544 C.ar      1 ACP         0.5614
     24 N7         -2.8883   -3.2948    0.3462 N.2       1 ACP        -0.5751
     25 C5         -3.5834   -2.1202    0.2043 C.ar      1 ACP        -0.2117
     26 C6         -4.8225   -1.8251   -0.3554 C.ar      1 ACP         0.7177
     27 N6         -5.6154   -2.8395   -0.9189 N.pl3     1 ACP        -0.9401
     28 N1         -5.2589   -0.5425   -0.3507 N.ar      1 ACP        -0.8008
     29 C2         -4.4510    0.3913    0.2069 C.ar      1 ACP         0.6565
     30 N3         -3.2368    0.2296    0.7767 N.ar      1 ACP        -0.7061
     31 C4         -2.8684   -1.0596    0.7376 C.ar      1 ACP         0.5715
     32 HOG3        0.7997    7.2300   -2.2342 H         1 ACP         0.4226
     33 HOB2        0.1214    6.5250    4.3280 H         1 ACP         0.4482
     34 H3B1       -0.5657    8.5079    1.0269 H         1 ACP         0.1012
     35 H3B2       -1.7177    7.3771    0.3222 H         1 ACP         0.1012
     36 H5'1       -1.1770    2.0503    0.6369 H         1 ACP         0.0481
     37 H5'2       -0.2082    3.2815    1.4877 H         1 ACP         0.0481
     38 H4'         0.0403    1.7078    3.4343 H         1 ACP         0.0904
     39 H3'         1.5906    1.4859    1.1353 H         1 ACP         0.0809
     40 HO3'        2.6839   -0.1150    2.2479 H         1 ACP         0.4528
     41 H2'        -0.0017    0.0018    0.0005 H         1 ACP         0.0594
     42 HO2'        2.0953   -0.9375    0.0709 H         1 ACP         0.4344
     43 H1'        -0.1998   -1.6319    2.6178 H         1 ACP         0.1127
     44 H8         -0.9745   -3.6312    1.2318 H         1 ACP         0.1050
     45 HN61       -5.2619   -3.7766   -0.9586 H         1 ACP         0.4211
     46 HN62       -6.4834   -2.5990   -1.3590 H         1 ACP         0.4211
     47 H2         -4.8317    1.4071    0.1930 H         1 ACP         0.0375
@<TRIPOS>BOND
     1    1    2 2
     2    1    3 1
     3    1    4 1
     4    1    8 1
     5    4   32 1
     6    5    6 2
     7    5    7 1
     8    5    8 1
     9    5   12 1
    10    7   33 1
    11    8   34 1
    12    8   35 1
    13    9   10 2
    14    9   11 1
    15    9   12 1
    16    9   13 1
    17   13   14 1
    18   14   15 1
    19   14   36 1
    20   14   37 1
    21   15   16 1
    22   15   17 1
    23   15   38 1
    24   16   21 1
    25   17   18 1
    26   17   19 1
    27   17   39 1
    28   18   40 1
    29   19   20 1
    30   19   21 1
    31   19   41 1
    32   20   42 1
    33   21   22 1
    34   21   43 1
    35   22   23 ar
    36   22   31 ar
    37   23   24 ar
    38   23   44 1
    39   24   25 ar
    40   25   26 ar
    41   25   31 ar
    42   26   27 1
    43   26   28 ar
    44   27   45 1
    45   27   46 1
    46   28   29 ar
    47   29   30 ar
    48   29   47 1
    49   30   31 ar
@<TRIPOS>SUBSTRUCTURE
     1 ACP         1 GROUP 0 A     ****
@<TRIPOS>MOLECULE
[[[5-(6-aminopurin-9-yl)-3,4-dihydroxy-tetrahydrofuran-2-yl]methoxy-oxido-phosphoryl]oxy-hydroxy-phosphoryl]methyl-hydroxy-phosphinate
   47    49     1     0     0
SMALL
USER_CHARGES

@<TRIPOS>ATOM
      1 PG         -5.0708    4.2148    0.2068 P.3       1 ACP         1.3516
      2 O1G        -6.4911    4.3597    0.7018 O.co2     1 ACP        -0.8379
      3 O2G        -4.0904    3.2540    0.8389 O.co2     1 ACP        -0.8379
      4 O3G        -5.0801    3.9936   -1.4090 O.3       1 ACP        -0.7980
      5 PB         -2.5995    6.2208   -0.2650 P.3       1 ACP         1.7688
      6 O1B        -2.1718    7.6540   -0.1594 O.2       1 ACP        -0.9167
      7 O2B        -2.5166    5.5954   -1.7528 O.3       1 ACP        -0.8201
      8 C3B        -4.3016    5.8959    0.2422 C.3       1 ACP        -0.6097
      9 PA         -0.1841    4.7791    0.6529 P.3       1 ACP         1.5979
     10 O1A         0.5954    5.9768    1.1506 O.co2     1 ACP        -0.8617
     11 O2A         0.1742    4.1138   -0.6581 O.co2     1 ACP        -0.8617
     12 O3A        -1.7686    5.1698    0.6355 O.3       1 ACP        -0.8283
     13 O5'        -0.2060    3.6558    1.8418 O.3       1 ACP        -0.5783
     14 C5'        -0.8811    2.4285    1.6206 C.3       1 ACP         0.1980
     15 C4'        -0.1994    1.3333    2.4288 C.3       1 ACP         0.0815
     16 O4'        -1.1285    0.2356    2.5840 O.3       1 ACP        -0.4127
     17 C3'         1.0324    0.7610    1.7344 C.3       1 ACP         0.0890
     18 O3'         1.9175    0.2377    2.7247 O.3       1 ACP        -0.6221
     19 C2'         0.4468   -0.3802    0.9263 C.3       1 ACP         0.1067
     20 O2'         1.3993   -1.3703    0.5961 O.3       1 ACP        -0.6053
     21 C1'        -0.6159   -0.9100    1.8769 C.3       1 ACP         0.4223
     22 N9         -1.7127   -1.6108    1.2130 N.pl3     1 ACP        -0.6834
     23 C8         -2.8641   -1.0399    0.7392 C.ar      1 ACP         0.5614
     24 N7         -3.6659   -1.9257    0.1858 N.2       1 ACP        -0.5751
     25 C5         -3.0053   -3.1223    0.3069 C.ar      1 ACP        -0.2117
     26 C6         -3.3321   -4.4178   -0.0813 C.ar      1 ACP         0.7177
     27 N6         -4.5476   -4.6866   -0.7335 N.pl3     1 ACP        -0.9401
     28 N1         -2.4608   -5.4225    0.1773 N.ar      1 ACP        -0.8008
     29 C2         -1.3053   -5.1020    0.8081 C.ar      1 ACP         0.6565
     30 N3         -0.8788   -3.8921    1.2315 N.ar      1 ACP        -0.7061
     31 C4         -1.7870   -2.9477    0.9438 C.ar      1 ACP         0.5715
     32 HOG3       -5.5534    3.2147   -1.7718 H         1 ACP         0.4226
     33 HOB2       -1.6488    5.5686   -2.2092 H         1 ACP         0.4482
     34 H3B1       -4.9547    6.5399   -0.3575 H         1 ACP         0.1012
     35 H3B2       -4.3932    6.2266    1.2823 H         1 ACP         0.1012
     36 H5'1       -1.9255    2.5382    1.9294 H         1 ACP         0.0481
     37 H5'2       -0.8473    2.1933    0.5521 H         1 ACP         0.0481
     38 H4'         0.0403    1.7078    3.4343 H         1 ACP         0.0904
     39 H3'         1.5906    1.4859    1.1353 H         1 ACP         0.0809
     40 HO3'        2.6839   -0.1150    2.2479 H         1 ACP         0.4528
     41 H2'        -0.0017    0.0018    0.0005 H         1 ACP         0.0594
     42 HO2'        0.9369   -2.0558    0.0825 H         1 ACP         0.4344
     43 H1'        -0.1998   -1.6319    2.6178 H         1 ACP         0.1127
     44 H8         -3.0609    0.0200    0.8250 H         1 ACP         0.1050
     45 HN61       -5.2046   -3.9433   -0.8775 H         1 ACP         0.4211
     46 HN62       -4.7849   -5.6332   -0.9625 H         1 ACP         0.4211
     47 H2         -0.6318   -5.9307    0.9993 H         1 ACP         0.0375
@<TRIPOS>BOND
     1    1    2 2
     2    1    3 1
     3    1    4 1
     4    1    8 1
     5    4   32 1
     6    5    6 2
     7    5    7 1
     8    5    8 1
     9    5   12 1
    10    7   33 1
    11    8   34 1
    12    8   35 1
    13    9   10 2
    14    9   11 1
    15    9   12 1
    16    9   13 1
    17   13   14 1
    18   14   15 1
    19   14   36 1
    20   14   37 1
    21   15   16 1
    22   15   17 1
    23   15   38 1
    24   16   21 1
    25   17   18 1
    26   17   19 1
    27   17   39 1
    28   18   40 1
    29   19   20 1
    30   19   21 1
    31   19   41 1
    32   20   42 1
    33   21   22 1
    34   21   43 1
    35   22   23 ar
    36   22   31 ar
    37   23   24 ar
    38   23   44 1
    39   24   25 ar
    40   25   26 ar
    41   25   31 ar
    42   26   27 1
    43   26   28 ar
    44   27   45 1
    45   27   46 1
    46   28   29 ar
    47   29   30 ar
    48   29   47 1
    49   30   31 ar
@<TRIPOS>SUBSTRUCTURE
     1 ACP         1 GROUP 0 A     ****
@<TRIPOS>MOLECULE
[[[5-(6-aminopurin-9-yl)-3,4-dihydroxy-tetrahydrofuran-2-yl]methoxy-oxido-phosphoryl]oxy-hydroxy-phosphoryl]methyl-hydroxy-phosphinate
   47    49     1     0     0
SMALL
USER_CHARGES

@<TRIPOS>ATOM
      1 PG         -2.8209    7.1556    5.1801 P.3       1 ACP         1.3516
      2 O1G        -3.4834    7.0821    3.8240 O.co2     1 ACP        -0.8379
      3 O2G        -1.9514    8.3214    5.5909 O.co2     1 ACP        -0.8379
      4 O3G        -3.9306    6.8724    6.3413 O.3       1 ACP        -0.7980
      5 PB         -0.4691    5.1522    4.2806 P.3       1 ACP         1.7688
      6 O1B         0.2159    3.8637    4.6252 O.2       1 ACP        -0.9167
      7 O2B         0.4906    6.4525    4.2805 O.3       1 ACP        -0.8201
      8 C3B        -1.8185    5.6157    5.3870 C.3       1 ACP        -0.6097
      9 PA         -0.5788    5.0303    1.3262 P.3       1 ACP         1.5979
     10 O1A         0.5862    5.9826    1.1662 O.co2     1 ACP        -0.8617
     11 O2A        -1.7218    5.0335    0.3346 O.co2     1 ACP        -0.8617
     12 O3A        -1.1812    5.2058    2.8328 O.3       1 ACP        -0.8283
     13 O5'         0.0181    3.5132    1.4596 O.3       1 ACP        -0.5783
     14 C5'        -0.8811    2.4285    1.6206 C.3       1 ACP         0.1980
     15 C4'        -0.1994    1.3333    2.4288 C.3       1 ACP         0.0815
     16 O4'        -1.1285    0.2356    2.5840 O.3       1 ACP        -0.4127
     17 C3'         1.0324    0.7610    1.7344 C.3       1 ACP         0.0890
     18 O3'         1.9175    0.2377    2.7247 O.3       1 ACP        -0.6221
     19 C2'         0.4468   -0.3802    0.9263 C.3       1 ACP         0.1067
     20 O2'         1.3993   -1.3703    0.5961 O.3       1 ACP        -0.6053
     21 C1'        -0.6159   -0.9100    1.8769 C.3       1 ACP         0.4223
     22 N9         -1.7127   -1.6108    1.2130 N.pl3     1 ACP        -0.6834
     23 C8         -1.7712   -2.9546    0.9544 C.ar      1 ACP         0.5614
     24 N7         -2.8883   -3.2948    0.3462 N.2       1 ACP        -0.5751
     25 C5         -3.5834   -2.1202    0.2043 C.ar      1 ACP        -0.2117
     26 C6         -4.8225   -1.8251   -0.3554 C.ar      1 ACP         0.7177
     27 N6         -5.6154   -2.8395   -0.9189 N.pl3     1 ACP        -0.9401
     28 N1         -5.2589   -0.5425   -0.3507 N.ar      1 ACP        -0.8008
     29 C2         -4.4510    0.3913    0.2069 C.ar      1 ACP         0.6565
     30 N3         -3.2368    0.2296    0.7767 N.ar      1 ACP        -0.7061
     31 C4         -2.8684   -1.0596    0.7376 C.ar      1 ACP         0.5715
     32 HOG3       -4.7034    7.4730    6.4063 H         1 ACP         0.4226
     33 HOB2        1.2581    6.4764    3.6702 H         1 ACP         0.4482
     34 H3B1       -1.4145    5.6524    6.4050 H         1 ACP         0.1012
     35 H3B2       -2.5473    4.7986    5.3609 H         1 ACP         0.1012
     36 H5'1       -1.7769    2.7851    2.1387 H         1 ACP         0.0481
     37 H5'2       -1.1653    2.0543    0.6320 H         1 ACP         0.0481
     38 H4'         0.0403    1.7078    3.4343 H         1 ACP         0.0904
     39 H3'         1.5906    1.4859    1.1353 H         1 ACP         0.0809
     40 HO3'        2.6839   -0.1150    2.2479 H         1 ACP         0.4528
     41 H2'        -0.0017    0.0018    0.0005 H         1 ACP         0.0594
     42 HO2'        0.9369   -2.0558    0.0825 H         1 ACP         0.4344
     43 H1'        -0.1998   -1.6319    2.6178 H         1 ACP         0.1127
     44 H8         -0.9745   -3.6312    1.2318 H         1 ACP         0.1050
     45 HN61       -5.2619   -3.7766   -0.9586 H         1 ACP         0.4211
     46 HN62       -6.4834   -2.5990   -1.3590 H         1 ACP         0.4211
     47 H2         -4.8317    1.4071    0.1930 H         1 ACP         0.0375
@<TRIPOS>BOND
     1    1    2 2
     2    1    3 1
     3    1    4 1
     4    1    8 1
     5    4   32 1
     6    5    6 2
     7    5    7 1
     8    5    8 1
     9    5   12 1
    10    7   33 1
    11    8   34 1
    12    8   35 1
    13    9   10 2
    14    9   11 1
    15    9   12 1
    16    9   13 1
    17   13   14 1
    18   14   15 1
    19   14   36 1
    20   14   37 1
    21   15   16 1
    22   15   17 1
    23   15   38 1
    24   16   21 1
    25   17   18 1
    26   17   19 1
    27   17   39 1
    28   18   40 1
    29   19   20 1
    30   19   21 1
    31   19   41 1
    32   20   42 1
    33   21   22 1
    34   21   43 1
    35   22   23 ar
    36   22   31 ar
    37   23   24 ar
    38   23   44 1
    39   24   25 ar
    40   25   26 ar
    41   25   31 ar
    42   26   27 1
    43   26   28 ar
    44   27   45 1
    45   27   46 1
    46   28   29 ar
    47   29   30 ar
    48   29   47 1
    49   30   31 ar
@<TRIPOS>SUBSTRUCTURE
     1 ACP         1 GROUP 0 A     ****
@<TRIPOS>MOLECULE
[[[5-(6-aminopurin-9-yl)-3,4-dihydroxy-tetrahydrofuran-2-yl]methoxy-oxido-phosphoryl]oxy-hydroxy-phosphoryl]methyl-hydroxy-phosphinate
   47    49     1     0     0
SMALL
USER_CHARGES

@<TRIPOS>ATOM
      1 PG          8.1912    1.7689   -4.4605 P.3       1 ACP         1.3516
      2 O1G         8.7781    1.4610   -3.1025 O.co2     1 ACP        -0.8379
      3 O2G         8.6182    2.9715   -5.2699 O.co2     1 ACP        -0.8379
      4 O3G         8.2607    0.4345   -5.3958 O.3       1 ACP        -0.7980
      5 PB          5.5322    3.0358   -3.1650 P.3       1 ACP         1.7688
      6 O1B         4.0358    2.9423   -3.1481 O.2       1 ACP        -0.9167
      7 O2B         6.1178    4.4678   -3.6319 O.3       1 ACP        -0.8201
      8 C3B         6.3554    1.8589   -4.2590 C.3       1 ACP        -0.6097
      9 PA          6.1595    3.5245   -0.3149 P.3       1 ACP         1.5979
     10 O1A         6.3881    5.0035   -0.5385 O.co2     1 ACP        -0.8617
     11 O2A         6.9730    2.7625    0.7085 O.co2     1 ACP        -0.8617
     12 O3A         6.2706    2.7650   -1.7552 O.3       1 ACP        -0.8283
     13 O5'         4.5669    3.2940   -0.0211 O.3       1 ACP        -0.5783
     14 C5'         4.0922    1.9801    0.2227 C.3       1 ACP         0.1980
     15 C4'         2.5944    2.0310    0.4653 C.3       1 ACP         0.0815
     16 O4'         1.9327    2.5740   -0.6889 O.3       1 ACP        -0.4127
     17 C3'         1.9685    0.6634    0.6767 C.3       1 ACP         0.0890
     18 O3'         2.1425    0.1975    1.9977 O.3       1 ACP        -0.6221
     19 C2'         0.5176    0.9128    0.3099 C.3       1 ACP         0.1067
     20 O2'        -0.2103    1.4454    1.4152 O.3       1 ACP        -0.6053
     21 C1'         0.6219    1.9765   -0.7844 C.3       1 ACP         0.4223
     22 N9          0.4237    1.4496   -2.1357 N.pl3     1 ACP        -0.6834
     23 C8          1.1856    0.4888   -2.7458 C.ar      1 ACP         0.5614
     24 N7          0.7615    0.2176   -3.9625 N.2       1 ACP        -0.5751
     25 C5         -0.3220    1.0389   -4.1486 C.ar      1 ACP        -0.2117
     26 C6         -1.1900    1.2182   -5.2210 C.ar      1 ACP         0.7177
     27 N6         -1.0341    0.4739   -6.4028 N.pl3     1 ACP        -0.9401
     28 N1         -2.1929    2.1227   -5.1127 N.ar      1 ACP        -0.8008
     29 C2         -2.2930    2.8097   -3.9492 C.ar      1 ACP         0.6565
     30 N3         -1.5176    2.7252   -2.8462 N.ar      1 ACP        -0.7061
     31 C4         -0.5489    1.8142   -3.0226 C.ar      1 ACP         0.5715
     32 HOG3        9.1391    0.0411   -5.5851 H         1 ACP         0.4226
     33 HOB2        5.8835    5.2681   -3.1155 H         1 ACP         0.4482
     34 H3B1        5.9473    2.0014   -5.2661 H         1 ACP         0.1012
     35 H3B2        6.0577    0.8570   -3.9317 H         1 ACP         0.1012
     36 H5'1        4.3180    1.3550   -0.6470 H         1 ACP         0.0481
     37 H5'2        4.6085    1.5739    1.0983 H         1 ACP         0.0481
     38 H4'         2.3751    2.7029    1.3156 H         1 ACP         0.0904
     39 H3'         2.4336   -0.1217   -0.0015 H         1 ACP         0.0809
     40 HO3'        1.7160   -0.6716    2.0397 H         1 ACP         0.4528
     41 H2'         0.0316    0.0155   -0.0339 H         1 ACP         0.0594
     42 HO2'       -0.1608    0.7921    2.1351 H         1 ACP         0.4344
     43 H1'        -0.1474    2.7798   -0.6651 H         1 ACP         0.1127
     44 H8          2.0314    0.0256   -2.2564 H         1 ACP         0.1050
     45 HN61       -0.2609   -0.1582   -6.4888 H         1 ACP         0.4211
     46 HN62       -1.6409    0.6517   -7.1807 H         1 ACP         0.4211
     47 H2         -3.1067    3.5253   -3.8975 H         1 ACP         0.0375
@<TRIPOS>BOND
     1    1    2 2
     2    1    3 1
     3    1    4 1
     4    1    8 1
     5    4   32 1
     6    5    6 2
     7    5    7 1
     8    5    8 1
     9    5   12 1
    10    7   33 1
    11    8   34 1
    12    8   35 1
    13    9   10 2
    14    9   11 1
    15    9   12 1
    16    9   13 1
    17   13   14 1
    18   14   15 1
    19   14   36 1
    20   14   37 1
    21   15   16 1
    22   15   17 1
    23   15   38 1
    24   16   21 1
    25   17   18 1
    26   17   19 1
    27   17   39 1
    28   18   40 1
    29   19   20 1
    30   19   21 1
    31   19   41 1
    32   20   42 1
    33   21   22 1
    34   21   43 1
    35   22   23 ar
    36   22   31 ar
    37   23   24 ar
    38   23   44 1
    39   24   25 ar
    40   25   26 ar
    41   25   31 ar
    42   26   27 1
    43   26   28 ar
    44   27   45 1
    45   27   46 1
    46   28   29 ar
    47   29   30 ar
    48   29   47 1
    49   30   31 ar
@<TRIPOS>SUBSTRUCTURE
     1 ACP         1 GROUP 0 A     ****
@<TRIPOS>MOLECULE
[[[5-(6-aminopurin-9-yl)-3,4-dihydroxy-tetrahydrofuran-2-yl]methoxy-oxido-phosphoryl]oxy-hydroxy-phosphoryl]methyl-hydroxy-phosphinate
   47    49     1     0     0
SMALL
USER_CHARGES

@<TRIPOS>ATOM
      1 PG          7.0083   -0.1706    3.4641 P.3       1 ACP         1.3516
      2 O1G         7.8925   -1.0338    4.3338 O.co2     1 ACP        -0.8379
      3 O2G         7.0304   -0.2560    1.9554 O.co2     1 ACP        -0.8379
      4 O3G         5.4676   -0.2711    3.9895 O.3       1 ACP        -0.7980
      5 PB          6.5019    2.9912    3.1470 P.3       1 ACP         1.7688
      6 O1B         6.9105    4.3368    3.6673 O.2       1 ACP        -0.9167
      7 O2B         4.9319    2.6466    3.3147 O.3       1 ACP        -0.8201
      8 C3B         7.3336    1.5903    3.9251 C.3       1 ACP        -0.6097
      9 PA          6.2488    3.4955    0.2423 P.3       1 ACP         1.5979
     10 O1A         6.6915    2.7044   -0.9692 O.co2     1 ACP        -0.8617
     11 O2A         6.5659    4.9703    0.3608 O.co2     1 ACP        -0.8617
     12 O3A         6.7832    2.7273    1.5794 O.3       1 ACP        -0.8283
     13 O5'         4.6405    3.2701    0.4379 O.3       1 ACP        -0.5783
     14 C5'         4.0922    1.9801    0.2227 C.3       1 ACP         0.1980
     15 C4'         2.5944    2.0310    0.4653 C.3       1 ACP         0.0815
     16 O4'         1.9327    2.5740   -0.6889 O.3       1 ACP        -0.4127
     17 C3'         1.9685    0.6634    0.6767 C.3       1 ACP         0.0890
     18 O3'         2.1425    0.1975    1.9977 O.3       1 ACP        -0.6221
     19 C2'         0.5176    0.9128    0.3099 C.3       1 ACP         0.1067
     20 O2'        -0.2103    1.4454    1.4152 O.3       1 ACP        -0.6053
     21 C1'         0.6219    1.9765   -0.7844 C.3       1 ACP         0.4223
     22 N9          0.4237    1.4496   -2.1357 N.pl3     1 ACP        -0.6834
     23 C8          1.4026    0.9717   -2.9660 C.ar      1 ACP         0.5614
     24 N7          0.9183    0.5619   -4.1197 N.2       1 ACP        -0.5751
     25 C5         -0.4330    0.7845   -4.0331 C.ar      1 ACP        -0.2117
     26 C6         -1.4794    0.5615   -4.9225 C.ar      1 ACP         0.7177
     27 N6         -1.2378    0.0044   -6.1899 N.pl3     1 ACP        -0.9401
     28 N1         -2.7406    0.8885   -4.5512 N.ar      1 ACP        -0.8008
     29 C2         -2.9113    1.4216   -3.3172 C.ar      1 ACP         0.6565
     30 N3         -1.9824    1.6843   -2.3721 N.ar      1 ACP        -0.7061
     31 C4         -0.7613    1.3370   -2.8054 C.ar      1 ACP         0.5715
     32 HOG3        5.0321   -1.1501    3.9964 H         1 ACP         0.4226
     33 HOB2        4.2695    3.2265    2.8823 H         1 ACP         0.4482
     34 H3B1        7.1568    1.6579    5.0045 H         1 ACP         0.1012
     35 H3B2        8.4084    1.7297    3.7673 H         1 ACP         0.1012
     36 H5'1        4.3030    1.6731   -0.8066 H         1 ACP         0.0481
     37 H5'2        4.5679    1.2740    0.9106 H         1 ACP         0.0481
     38 H4'         2.3751    2.7029    1.3156 H         1 ACP         0.0904
     39 H3'         2.4336   -0.1217   -0.0015 H         1 ACP         0.0809
     40 HO3'        1.7160   -0.6716    2.0397 H         1 ACP         0.4528
     41 H2'         0.0316    0.0155   -0.0339 H         1 ACP         0.0594
     42 HO2'       -0.1608    0.7921    2.1351 H         1 ACP         0.4344
     43 H1'        -0.1474    2.7798   -0.6651 H         1 ACP         0.1127
     44 H8          2.4442    0.9470   -2.6763 H         1 ACP         0.1050
     45 HN61       -0.2955   -0.1901   -6.4713 H         1 ACP         0.4211
     46 HN62       -1.9987   -0.1045   -6.8334 H         1 ACP         0.4211
     47 H2         -3.9335    1.6716   -3.0534 H         1 ACP         0.0375
@<TRIPOS>BOND
     1    1    2 2
     2    1    3 1
     3    1    4 1
     4    1    8 1
     5    4   32 1
     6    5    6 2
     7    5    7 1
     8    5    8 1
     9    5   12 1
    10    7   33 1
    11    8   34 1
    12    8   35 1
    13    9   10 2
    14    9   11 1
    15    9   12 1
    16    9   13 1
    17   13   14 1
    18   14   15 1
    19   14   36 1
    20   14   37 1
    21   15   16 1
    22   15   17 1
    23   15   38 1
    24   16   21 1
    25   17   18 1
    26   17   19 1
    27   17   39 1
    28   18   40 1
    29   19   20 1
    30   19   21 1
    31   19   41 1
    32   20   42 1
    33   21   22 1
    34   21   43 1
    35   22   23 ar
    36   22   31 ar
    37   23   24 ar
    38   23   44 1
    39   24   25 ar
    40   25   26 ar
    41   25   31 ar
    42   26   27 1
    43   26   28 ar
    44   27   45 1
    45   27   46 1
    46   28   29 ar
    47   29   30 ar
    48   29   47 1
    49   30   31 ar
@<TRIPOS>SUBSTRUCTURE
     1 ACP         1 GROUP 0 A     ****
@<TRIPOS>MOLECULE
[[[5-(6-aminopurin-9-yl)-3,4-dihydroxy-tetrahydrofuran-2-yl]methoxy-oxido-phosphoryl]oxy-hydroxy-phosphoryl]methyl-hydroxy-phosphinate
   47    49     1     0     0
SMALL
USER_CHARGES

@<TRIPOS>ATOM
      1 PG         -2.9739    6.0010   -3.1198 P.3       1 ACP         1.3516
      2 O1G        -4.0410    5.5271   -4.0789 O.co2     1 ACP        -0.8379
      3 O2G        -2.0575    7.1591   -3.4407 O.co2     1 ACP        -0.8379
      4 O3G        -3.6320    6.2242   -1.6443 O.3       1 ACP        -0.7980
      5 PB         -0.4906    4.6265   -1.6037 P.3       1 ACP         1.7688
      6 O1B         0.5881    5.5802   -2.0222 O.2       1 ACP        -0.9167
      7 O2B        -0.0200    3.0865   -1.4673 O.3       1 ACP        -0.8201
      8 C3B        -1.9078    4.5442   -2.7194 C.3       1 ACP        -0.6097
      9 PA         -0.5788    5.0303    1.3262 P.3       1 ACP         1.5979
     10 O1A        -1.7294    5.1711    2.2989 O.co2     1 ACP        -0.8617
     11 O2A         0.5650    6.0209    1.3331 O.co2     1 ACP        -0.8617
     12 O3A        -1.1922    4.9364   -0.1832 O.3       1 ACP        -0.8283
     13 O5'         0.0181    3.5132    1.4596 O.3       1 ACP        -0.5783
     14 C5'        -0.8811    2.4285    1.6206 C.3       1 ACP         0.1980
     15 C4'        -0.1994    1.3333    2.4288 C.3       1 ACP         0.0815
     16 O4'        -1.1285    0.2356    2.5840 O.3       1 ACP        -0.4127
     17 C3'         1.0324    0.7610    1.7344 C.3       1 ACP         0.0890
     18 O3'         1.9175    0.2377    2.7247 O.3       1 ACP        -0.6221
     19 C2'         0.4468   -0.3802    0.9263 C.3       1 ACP         0.1067
     20 O2'         1.3993   -1.3703    0.5961 O.3       1 ACP        -0.6053
     21 C1'        -0.6159   -0.9100    1.8769 C.3       1 ACP         0.4223
     22 N9         -1.7127   -1.6108    1.2130 N.pl3     1 ACP        -0.6834
     23 C8         -2.8641   -1.0399    0.7392 C.ar      1 ACP         0.5614
     24 N7         -3.6659   -1.9257    0.1858 N.2       1 ACP        -0.5751
     25 C5         -3.0053   -3.1223    0.3069 C.ar      1 ACP        -0.2117
     26 C6         -3.3321   -4.4178   -0.0813 C.ar      1 ACP         0.7177
     27 N6         -4.5476   -4.6866   -0.7335 N.pl3     1 ACP        -0.9401
     28 N1         -2.4608   -5.4225    0.1773 N.ar      1 ACP        -0.8008
     29 C2         -1.3053   -5.1020    0.8081 C.ar      1 ACP         0.6565
     30 N3         -0.8788   -3.8921    1.2315 N.ar      1 ACP        -0.7061
     31 C4         -1.7870   -2.9477    0.9438 C.ar      1 ACP         0.5715
     32 HOG3       -4.3607    6.8743   -1.5506 H         1 ACP         0.4226
     33 HOB2        0.6902    2.8616   -0.8293 H         1 ACP         0.4482
     34 H3B1       -2.5840    3.7700   -2.3395 H         1 ACP         0.1012
     35 H3B2       -1.5321    4.1947   -3.6870 H         1 ACP         0.1012
     36 H5'1       -1.7769    2.7851    2.1387 H         1 ACP         0.0481
     37 H5'2       -1.1653    2.0543    0.6320 H         1 ACP         0.0481
     38 H4'         0.0403    1.7078    3.4343 H         1 ACP         0.0904
     39 H3'         1.5906    1.4859    1.1353 H         1 ACP         0.0809
     40 HO3'        2.6839   -0.1150    2.2479 H         1 ACP         0.4528
     41 H2'        -0.0017    0.0018    0.0005 H         1 ACP         0.0594
     42 HO2'        2.0953   -0.9375    0.0709 H         1 ACP         0.4344
     43 H1'        -0.1998   -1.6319    2.6178 H         1 ACP         0.1127
     44 H8         -3.0609    0.0200    0.8250 H         1 ACP         0.1050
     45 HN61       -5.2046   -3.9433   -0.8775 H         1 ACP         0.4211
     46 HN62       -4.7849   -5.6332   -0.9625 H         1 ACP         0.4211
     47 H2         -0.6318   -5.9307    0.9993 H         1 ACP         0.0375
@<TRIPOS>BOND
     1    1    2 2
     2    1    3 1
     3    1    4 1
     4    1    8 1
     5    4   32 1
     6    5    6 2
     7    5    7 1
     8    5    8 1
     9    5   12 1
    10    7   33 1
    11    8   34 1
    12    8   35 1
    13    9   10 2
    14    9   11 1
    15    9   12 1
    16    9   13 1
    17   13   14 1
    18   14   15 1
    19   14   36 1
    20   14   37 1
    21   15   16 1
    22   15   17 1
    23   15   38 1
    24   16   21 1
    25   17   18 1
    26   17   19 1
    27   17   39 1
    28   18   40 1
    29   19   20 1
    30   19   21 1
    31   19   41 1
    32   20   42 1
    33   21   22 1
    34   21   43 1
    35   22   23 ar
    36   22   31 ar
    37   23   24 ar
    38   23   44 1
    39   24   25 ar
    40   25   26 ar
    41   25   31 ar
    42   26   27 1
    43   26   28 ar
    44   27   45 1
    45   27   46 1
    46   28   29 ar
    47   29   30 ar
    48   29   47 1
    49   30   31 ar
@<TRIPOS>SUBSTRUCTURE
     1 ACP         1 GROUP 0 A     ****
@<TRIPOS>MOLECULE
[[[5-(6-aminopurin-9-yl)-3,4-dihydroxy-tetrahydrofuran-2-yl]methoxy-oxido-phosphoryl]oxy-hydroxy-phosphoryl]methyl-hydroxy-phosphinate
   47    49     1     0     0
SMALL
USER_CHARGES

@<TRIPOS>ATOM
      1 PG          5.0173    2.5788    5.3108 P.3       1 ACP         1.3516
      2 O1G         4.2328    3.0044    6.5301 O.co2     1 ACP        -0.8379
      3 O2G         6.0221    1.4507    5.3515 O.co2     1 ACP        -0.8379
      4 O3G         3.9943    2.3477    4.0618 O.3       1 ACP        -0.7980
      5 PB          6.9576    4.0563    3.2116 P.3       1 ACP         1.7688
      6 O1B         8.1384    3.1372    3.3067 O.2       1 ACP        -0.9167
      7 O2B         7.3257    5.6134    2.9842 O.3       1 ACP        -0.8201
      8 C3B         5.8904    4.0765    4.6678 C.3       1 ACP        -0.6097
      9 PA          6.0981    3.6803    0.4053 P.3       1 ACP         1.5979
     10 O1A         6.9910    2.5052    0.0710 O.co2     1 ACP        -0.8617
     11 O2A         6.4244    5.0681   -0.1019 O.co2     1 ACP        -0.8617
     12 O3A         5.9102    3.7366    2.0255 O.3       1 ACP        -0.8283
     13 O5'         4.5669    3.2940   -0.0211 O.3       1 ACP        -0.5783
     14 C5'         4.0922    1.9801    0.2227 C.3       1 ACP         0.1980
     15 C4'         2.5944    2.0310    0.4653 C.3       1 ACP         0.0815
     16 O4'         1.9327    2.5740   -0.6889 O.3       1 ACP        -0.4127
     17 C3'         1.9685    0.6634    0.6767 C.3       1 ACP         0.0890
     18 O3'         2.1425    0.1975    1.9977 O.3       1 ACP        -0.6221
     19 C2'         0.5176    0.9128    0.3099 C.3       1 ACP         0.1067
     20 O2'        -0.2103    1.4454    1.4152 O.3       1 ACP        -0.6053
     21 C1'         0.6219    1.9765   -0.7844 C.3       1 ACP         0.4223
     22 N9          0.4237    1.4496   -2.1357 N.pl3     1 ACP        -0.6834
     23 C8          1.4026    0.9717   -2.9660 C.ar      1 ACP         0.5614
     24 N7          0.9183    0.5619   -4.1197 N.2       1 ACP        -0.5751
     25 C5         -0.4330    0.7845   -4.0331 C.ar      1 ACP        -0.2117
     26 C6         -1.4794    0.5615   -4.9225 C.ar      1 ACP         0.7177
     27 N6         -1.2378    0.0044   -6.1899 N.pl3     1 ACP        -0.9401
     28 N1         -2.7406    0.8885   -4.5512 N.ar      1 ACP        -0.8008
     29 C2         -2.9113    1.4216   -3.3172 C.ar      1 ACP         0.6565
     30 N3         -1.9824    1.6843   -2.3721 N.ar      1 ACP        -0.7061
     31 C4         -0.7613    1.3370   -2.8054 C.ar      1 ACP         0.5715
     32 HOG3        3.2880    1.6733    4.1542 H         1 ACP         0.4226
     33 HOB2        7.8309    5.8700    2.1836 H         1 ACP         0.4482
     34 H3B1        5.1130    4.8302    4.4984 H         1 ACP         0.1012
     35 H3B2        6.5010    4.4291    5.5059 H         1 ACP         0.1012
     36 H5'1        4.3180    1.3550   -0.6470 H         1 ACP         0.0481
     37 H5'2        4.6085    1.5739    1.0983 H         1 ACP         0.0481
     38 H4'         2.3751    2.7029    1.3156 H         1 ACP         0.0904
     39 H3'         2.4336   -0.1217   -0.0015 H         1 ACP         0.0809
     40 HO3'        1.7160   -0.6716    2.0397 H         1 ACP         0.4528
     41 H2'         0.0316    0.0155   -0.0339 H         1 ACP         0.0594
     42 HO2'       -0.1608    0.7921    2.1351 H         1 ACP         0.4344
     43 H1'        -0.1474    2.7798   -0.6651 H         1 ACP         0.1127
     44 H8          2.4442    0.9470   -2.6763 H         1 ACP         0.1050
     45 HN61       -0.2955   -0.1901   -6.4713 H         1 ACP         0.4211
     46 HN62       -1.9987   -0.1045   -6.8334 H         1 ACP         0.4211
     47 H2         -3.9335    1.6716   -3.0534 H         1 ACP         0.0375
@<TRIPOS>BOND
     1    1    2 2
     2    1    3 1
     3    1    4 1
     4    1    8 1
     5    4   32 1
     6    5    6 2
     7    5    7 1
     8    5    8 1
     9    5   12 1
    10    7   33 1
    11    8   34 1
    12    8   35 1
    13    9   10 2
    14    9   11 1
    15    9   12 1
    16    9   13 1
    17   13   14 1
    18   14   15 1
    19   14   36 1
    20   14   37 1
    21   15   16 1
    22   15   17 1
    23   15   38 1
    24   16   21 1
    25   17   18 1
    26   17   19 1
    27   17   39 1
    28   18   40 1
    29   19   20 1
    30   19   21 1
    31   19   41 1
    32   20   42 1
    33   21   22 1
    34   21   43 1
    35   22   23 ar
    36   22   31 ar
    37   23   24 ar
    38   23   44 1
    39   24   25 ar
    40   25   26 ar
    41   25   31 ar
    42   26   27 1
    43   26   28 ar
    44   27   45 1
    45   27   46 1
    46   28   29 ar
    47   29   30 ar
    48   29   47 1
    49   30   31 ar
@<TRIPOS>SUBSTRUCTURE
     1 ACP         1 GROUP 0 A     ****
@<TRIPOS>MOLECULE
[[[5-(6-aminopurin-9-yl)-3,4-dihydroxy-tetrahydrofuran-2-yl]methoxy-oxido-phosphoryl]oxy-hydroxy-phosphoryl]methyl-hydroxy-phosphinate
   47    49     1     0     0
SMALL
USER_CHARGES

@<TRIPOS>ATOM
      1 PG         -6.4423    4.4847    0.6981 P.3       1 ACP         1.3516
      2 O1G        -7.6507    5.1455    1.3199 O.co2     1 ACP        -0.8379
      3 O2G        -5.7076    3.3493    1.3724 O.co2     1 ACP        -0.8379
      4 O3G        -6.7842    4.0696   -0.8416 O.3       1 ACP        -0.7980
      5 PB         -3.5941    5.5018   -0.4006 P.3       1 ACP         1.7688
      6 O1B        -2.7424    6.7198   -0.5988 O.2       1 ACP        -0.9167
      7 O2B        -3.9503    4.6946   -1.7545 O.3       1 ACP        -0.8201
      8 C3B        -5.2068    5.8152    0.3483 C.3       1 ACP        -0.6097
      9 PA         -2.5403    4.4097    2.1396 P.3       1 ACP         1.5979
     10 O1A        -3.7850    4.5996    2.9788 O.co2     1 ACP        -0.8617
     11 O2A        -1.3558    5.3389    2.2922 O.co2     1 ACP        -0.8617
     12 O3A        -2.9826    4.3653    0.5693 O.3       1 ACP        -0.8283
     13 O5'        -2.0402    2.8619    2.3131 O.3       1 ACP        -0.5783
     14 C5'        -0.8811    2.4285    1.6206 C.3       1 ACP         0.1980
     15 C4'        -0.1994    1.3333    2.4288 C.3       1 ACP         0.0815
     16 O4'        -1.1285    0.2356    2.5840 O.3       1 ACP        -0.4127
     17 C3'         1.0324    0.7610    1.7344 C.3       1 ACP         0.0890
     18 O3'         1.9175    0.2377    2.7247 O.3       1 ACP        -0.6221
     19 C2'         0.4468   -0.3802    0.9263 C.3       1 ACP         0.1067
     20 O2'         1.3993   -1.3703    0.5961 O.3       1 ACP        -0.6053
     21 C1'        -0.6159   -0.9100    1.8769 C.3       1 ACP         0.4223
     22 N9         -1.7127   -1.6108    1.2130 N.pl3     1 ACP        -0.6834
     23 C8         -2.0877   -2.9101    1.4304 C.ar      1 ACP         0.5614
     24 N7         -3.1152   -3.2613    0.6857 N.2       1 ACP        -0.5751
     25 C5         -3.4186   -2.1409   -0.0462 C.ar      1 ACP        -0.2117
     26 C6         -4.3953   -1.8809   -1.0023 C.ar      1 ACP         0.7177
     27 N6         -5.3118   -2.8767   -1.3812 N.pl3     1 ACP        -0.9401
     28 N1         -4.4538   -0.6507   -1.5667 N.ar      1 ACP        -0.8008
     29 C2         -3.5442    0.2679   -1.1609 C.ar      1 ACP         0.6565
     30 N3         -2.5561    0.1361   -0.2491 N.ar      1 ACP        -0.7061
     31 C4         -2.5568   -1.1019    0.2674 C.ar      1 ACP         0.5715
     32 HOG3       -7.5235    3.4458   -1.0048 H         1 ACP         0.4226
     33 HOB2       -3.2187    4.3286   -2.2958 H         1 ACP         0.4482
     34 H3B1       -5.7245    6.5520   -0.2763 H         1 ACP         0.1012
     35 H3B2       -5.0215    6.2905    1.3174 H         1 ACP         0.1012
     36 H5'1       -1.1770    2.0503    0.6369 H         1 ACP         0.0481
     37 H5'2       -0.2082    3.2815    1.4877 H         1 ACP         0.0481
     38 H4'         0.0403    1.7078    3.4343 H         1 ACP         0.0904
     39 H3'         1.5906    1.4859    1.1353 H         1 ACP         0.0809
     40 HO3'        2.6839   -0.1150    2.2479 H         1 ACP         0.4528
     41 H2'        -0.0017    0.0018    0.0005 H         1 ACP         0.0594
     42 HO2'        2.0953   -0.9375    0.0709 H         1 ACP         0.4344
     43 H1'        -0.1998   -1.6319    2.6178 H         1 ACP         0.1127
     44 H8         -1.5778   -3.5473    2.1399 H         1 ACP         0.1050
     45 HN61       -5.2294   -3.7965   -0.9914 H         1 ACP         0.4211
     46 HN62       -5.9774   -2.6837   -2.1055 H         1 ACP         0.4211
     47 H2         -3.6201    1.2414   -1.6336 H         1 ACP         0.0375
@<TRIPOS>BOND
     1    1    2 2
     2    1    3 1
     3    1    4 1
     4    1    8 1
     5    4   32 1
     6    5    6 2
     7    5    7 1
     8    5    8 1
     9    5   12 1
    10    7   33 1
    11    8   34 1
    12    8   35 1
    13    9   10 2
    14    9   11 1
    15    9   12 1
    16    9   13 1
    17   13   14 1
    18   14   15 1
    19   14   36 1
    20   14   37 1
    21   15   16 1
    22   15   17 1
    23   15   38 1
    24   16   21 1
    25   17   18 1
    26   17   19 1
    27   17   39 1
    28   18   40 1
    29   19   20 1
    30   19   21 1
    31   19   41 1
    32   20   42 1
    33   21   22 1
    34   21   43 1
    35   22   23 ar
    36   22   31 ar
    37   23   24 ar
    38   23   44 1
    39   24   25 ar
    40   25   26 ar
    41   25   31 ar
    42   26   27 1
    43   26   28 ar
    44   27   45 1
    45   27   46 1
    46   28   29 ar
    47   29   30 ar
    48   29   47 1
    49   30   31 ar
@<TRIPOS>SUBSTRUCTURE
     1 ACP         1 GROUP 0 A     ****
@<TRIPOS>MOLECULE
[[[5-(6-aminopurin-9-yl)-3,4-dihydroxy-tetrahydrofuran-2-yl]methoxy-oxido-phosphoryl]oxy-hydroxy-phosphoryl]methyl-hydroxy-phosphinate
   47    49     1     0     0
SMALL
USER_CHARGES

@<TRIPOS>ATOM
      1 PG         -6.6557    3.7998    2.5038 P.3       1 ACP         1.3516
      2 O1G        -5.4812    3.4401    3.3838 O.co2     1 ACP        -0.8379
      3 O2G        -7.6090    2.7582    1.9653 O.co2     1 ACP        -0.8379
      4 O3G        -7.5069    5.0034    3.2017 O.3       1 ACP        -0.7980
      5 PB         -4.7850    4.0680   -0.1005 P.3       1 ACP         1.7688
      6 O1B        -4.3775    4.9993   -1.2027 O.2       1 ACP        -0.9167
      7 O2B        -5.4607    2.6857   -0.5947 O.3       1 ACP        -0.8201
      8 C3B        -5.9920    4.7443    1.0594 C.3       1 ACP        -0.6097
      9 PA         -2.5929    4.4189    1.8558 P.3       1 ACP         1.5979
     10 O1A        -3.4090    5.0304    2.9738 O.co2     1 ACP        -0.8617
     11 O2A        -1.6852    5.2776    1.0023 O.co2     1 ACP        -0.8617
     12 O3A        -3.6015    3.5815    0.8837 O.3       1 ACP        -0.8283
     13 O5'        -1.7337    3.1724    2.4753 O.3       1 ACP        -0.5783
     14 C5'        -0.8811    2.4285    1.6206 C.3       1 ACP         0.1980
     15 C4'        -0.1994    1.3333    2.4288 C.3       1 ACP         0.0815
     16 O4'        -1.1285    0.2356    2.5840 O.3       1 ACP        -0.4127
     17 C3'         1.0324    0.7610    1.7344 C.3       1 ACP         0.0890
     18 O3'         1.9175    0.2377    2.7247 O.3       1 ACP        -0.6221
     19 C2'         0.4468   -0.3802    0.9263 C.3       1 ACP         0.1067
     20 O2'         1.3993   -1.3703    0.5961 O.3       1 ACP        -0.6053
     21 C1'        -0.6159   -0.9100    1.8769 C.3       1 ACP         0.4223
     22 N9         -1.7127   -1.6108    1.2130 N.pl3     1 ACP        -0.6834
     23 C8         -2.8641   -1.0399    0.7392 C.ar      1 ACP         0.5614
     24 N7         -3.6659   -1.9257    0.1858 N.2       1 ACP        -0.5751
     25 C5         -3.0053   -3.1223    0.3069 C.ar      1 ACP        -0.2117
     26 C6         -3.3321   -4.4178   -0.0813 C.ar      1 ACP         0.7177
     27 N6         -4.5476   -4.6866   -0.7335 N.pl3     1 ACP        -0.9401
     28 N1         -2.4608   -5.4225    0.1773 N.ar      1 ACP        -0.8008
     29 C2         -1.3053   -5.1020    0.8081 C.ar      1 ACP         0.6565
     30 N3         -0.8788   -3.8921    1.2315 N.ar      1 ACP        -0.7061
     31 C4         -1.7870   -2.9477    0.9438 C.ar      1 ACP         0.5715
     32 HOG3       -7.8958    4.8479    4.0887 H         1 ACP         0.4226
     33 HOB2       -4.9434    2.0834   -1.1706 H         1 ACP         0.4482
     34 H3B1       -6.8656    5.0637    0.4798 H         1 ACP         0.1012
     35 H3B2       -5.5475    5.6469    1.4922 H         1 ACP         0.1012
     36 H5'1       -1.4802    1.9928    0.8147 H         1 ACP         0.0481
     37 H5'2       -0.1369    3.1042    1.1873 H         1 ACP         0.0481
     38 H4'         0.0403    1.7078    3.4343 H         1 ACP         0.0904
     39 H3'         1.5906    1.4859    1.1353 H         1 ACP         0.0809
     40 HO3'        2.6839   -0.1150    2.2479 H         1 ACP         0.4528
     41 H2'        -0.0017    0.0018    0.0005 H         1 ACP         0.0594
     42 HO2'        2.0953   -0.9375    0.0709 H         1 ACP         0.4344
     43 H1'        -0.1998   -1.6319    2.6178 H         1 ACP         0.1127
     44 H8         -3.0609    0.0200    0.8250 H         1 ACP         0.1050
     45 HN61       -5.2046   -3.9433   -0.8775 H         1 ACP         0.4211
     46 HN62       -4.7849   -5.6332   -0.9625 H         1 ACP         0.4211
     47 H2         -0.6318   -5.9307    0.9993 H         1 ACP         0.0375
@<TRIPOS>BOND
     1    1    2 2
     2    1    3 1
     3    1    4 1
     4    1    8 1
     5    4   32 1
     6    5    6 2
     7    5    7 1
     8    5    8 1
     9    5   12 1
    10    7   33 1
    11    8   34 1
    12    8   35 1
    13    9   10 2
    14    9   11 1
    15    9   12 1
    16    9   13 1
    17   13   14 1
    18   14   15 1
    19   14   36 1
    20   14   37 1
    21   15   16 1
    22   15   17 1
    23   15   38 1
    24   16   21 1
    25   17   18 1
    26   17   19 1
    27   17   39 1
    28   18   40 1
    29   19   20 1
    30   19   21 1
    31   19   41 1
    32   20   42 1
    33   21   22 1
    34   21   43 1
    35   22   23 ar
    36   22   31 ar
    37   23   24 ar
    38   23   44 1
    39   24   25 ar
    40   25   26 ar
    41   25   31 ar
    42   26   27 1
    43   26   28 ar
    44   27   45 1
    45   27   46 1
    46   28   29 ar
    47   29   30 ar
    48   29   47 1
    49   30   31 ar
@<TRIPOS>SUBSTRUCTURE
     1 ACP         1 GROUP 0 A     ****
@<TRIPOS>MOLECULE
[[[5-(6-aminopurin-9-yl)-3,4-dihydroxy-tetrahydrofuran-2-yl]methoxy-oxido-phosphoryl]oxy-hydroxy-phosphoryl]methyl-hydroxy-phosphinate
   47    49     1     0     0
SMALL
USER_CHARGES

@<TRIPOS>ATOM
      1 PG          7.3768   -0.5713    3.3056 P.3       1 ACP         1.3516
      2 O1G         8.5190   -1.1285    4.1230 O.co2     1 ACP        -0.8379
      3 O2G         5.9903   -0.3868    3.8777 O.co2     1 ACP        -0.8379
      4 O3G         7.8522    0.8109    2.5820 O.3       1 ACP        -0.7980
      5 PB          5.9791   -1.3396    0.5109 P.3       1 ACP         1.7688
      6 O1B         4.5567   -1.4114    0.9796 O.2       1 ACP        -0.9167
      7 O2B         6.3690   -2.4039   -0.6411 O.3       1 ACP        -0.8201
      8 C3B         7.2177   -1.6236    1.7935 C.3       1 ACP        -0.6097
      9 PA          5.8980    0.9306   -1.3851 P.3       1 ACP         1.5979
     10 O1A         5.8858    0.0210   -2.5944 O.co2     1 ACP        -0.8617
     11 O2A         6.6098    2.2652   -1.4287 O.co2     1 ACP        -0.8617
     12 O3A         6.4463    0.0768   -0.1069 O.3       1 ACP        -0.8283
     13 O5'         4.3515    1.1573   -0.9028 O.3       1 ACP        -0.5783
     14 C5'         4.0922    1.9801    0.2227 C.3       1 ACP         0.1980
     15 C4'         2.5944    2.0310    0.4653 C.3       1 ACP         0.0815
     16 O4'         1.9327    2.5740   -0.6889 O.3       1 ACP        -0.4127
     17 C3'         1.9685    0.6634    0.6767 C.3       1 ACP         0.0890
     18 O3'         2.1425    0.1975    1.9977 O.3       1 ACP        -0.6221
     19 C2'         0.5176    0.9128    0.3099 C.3       1 ACP         0.1067
     20 O2'        -0.2103    1.4454    1.4152 O.3       1 ACP        -0.6053
     21 C1'         0.6219    1.9765   -0.7844 C.3       1 ACP         0.4223
     22 N9          0.4237    1.4496   -2.1357 N.pl3     1 ACP        -0.6834
     23 C8          1.4026    0.9717   -2.9660 C.ar      1 ACP         0.5614
     24 N7          0.9183    0.5619   -4.1197 N.2       1 ACP        -0.5751
     25 C5         -0.4330    0.7845   -4.0331 C.ar      1 ACP        -0.2117
     26 C6         -1.4794    0.5615   -4.9225 C.ar      1 ACP         0.7177
     27 N6         -1.2378    0.0044   -6.1899 N.pl3     1 ACP        -0.9401
     28 N1         -2.7406    0.8885   -4.5512 N.ar      1 ACP        -0.8008
     29 C2         -2.9113    1.4216   -3.3172 C.ar      1 ACP         0.6565
     30 N3         -1.9824    1.6843   -2.3721 N.ar      1 ACP        -0.7061
     31 C4         -0.7613    1.3370   -2.8054 C.ar      1 ACP         0.5715
     32 HOG3        8.1448    1.5578    3.1467 H         1 ACP         0.4226
     33 HOB2        5.8864   -2.3781   -1.4946 H         1 ACP         0.4482
     34 H3B1        8.2020   -1.6117    1.3119 H         1 ACP         0.1012
     35 H3B2        7.0583   -2.6391    2.1715 H         1 ACP         0.1012
     36 H5'1        4.6070    1.5616    1.0933 H         1 ACP         0.0481
     37 H5'2        4.4825    2.9835    0.0252 H         1 ACP         0.0481
     38 H4'         2.3751    2.7029    1.3156 H         1 ACP         0.0904
     39 H3'         2.4336   -0.1217   -0.0015 H         1 ACP         0.0809
     40 HO3'        1.7160   -0.6716    2.0397 H         1 ACP         0.4528
     41 H2'         0.0316    0.0155   -0.0339 H         1 ACP         0.0594
     42 HO2'       -0.1608    0.7921    2.1351 H         1 ACP         0.4344
     43 H1'        -0.1474    2.7798   -0.6651 H         1 ACP         0.1127
     44 H8          2.4442    0.9470   -2.6763 H         1 ACP         0.1050
     45 HN61       -0.2955   -0.1901   -6.4713 H         1 ACP         0.4211
     46 HN62       -1.9987   -0.1045   -6.8334 H         1 ACP         0.4211
     47 H2         -3.9335    1.6716   -3.0534 H         1 ACP         0.0375
@<TRIPOS>BOND
     1    1    2 2
     2    1    3 1
     3    1    4 1
     4    1    8 1
     5    4   32 1
     6    5    6 2
     7    5    7 1
     8    5    8 1
     9    5   12 1
    10    7   33 1
    11    8   34 1
    12    8   35 1
    13    9   10 2
    14    9   11 1
    15    9   12 1
    16    9   13 1
    17   13   14 1
    18   14   15 1
    19   14   36 1
    20   14   37 1
    21   15   16 1
    22   15   17 1
    23   15   38 1
    24   16   21 1
    25   17   18 1
    26   17   19 1
    27   17   39 1
    28   18   40 1
    29   19   20 1
    30   19   21 1
    31   19   41 1
    32   20   42 1
    33   21   22 1
    34   21   43 1
    35   22   23 ar
    36   22   31 ar
    37   23   24 ar
    38   23   44 1
    39   24   25 ar
    40   25   26 ar
    41   25   31 ar
    42   26   27 1
    43   26   28 ar
    44   27   45 1
    45   27   46 1
    46   28   29 ar
    47   29   30 ar
    48   29   47 1
    49   30   31 ar
@<TRIPOS>SUBSTRUCTURE
     1 ACP         1 GROUP 0 A     ****
@<TRIPOS>MOLECULE
[[[5-(6-aminopurin-9-yl)-3,4-dihydroxy-tetrahydrofuran-2-yl]methoxy-oxido-phosphoryl]oxy-hydroxy-phosphoryl]methyl-hydroxy-phosphinate
   47    49     1     0     0
SMALL
USER_CHARGES

@<TRIPOS>ATOM
      1 PG          1.2776    6.5929   -2.7194 P.3       1 ACP         1.3516
      2 O1G         2.4743    7.5143   -2.7671 O.co2     1 ACP        -0.8379
      3 O2G        -0.0044    6.9717   -2.0146 O.co2     1 ACP        -0.8379
      4 O3G         0.9336    6.0732   -4.2266 O.3       1 ACP        -0.7980
      5 PB          0.7604    3.5672   -1.7542 P.3       1 ACP         1.7688
      6 O1B         1.4234    2.3594   -1.1629 O.2       1 ACP        -0.9167
      7 O2B         0.0935    3.3326   -3.2075 O.3       1 ACP        -0.8201
      8 C3B         1.8489    4.9855   -2.0062 C.3       1 ACP        -0.6097
      9 PA         -0.4663    4.8326    0.6227 P.3       1 ACP         1.5979
     10 O1A        -1.9050    5.1225    0.9915 O.co2     1 ACP        -0.8617
     11 O2A         0.5913    5.9095    0.7295 O.co2     1 ACP        -0.8617
     12 O3A        -0.4395    4.2082   -0.8850 O.3       1 ACP        -0.8283
     13 O5'         0.0181    3.5132    1.4596 O.3       1 ACP        -0.5783
     14 C5'        -0.8811    2.4285    1.6206 C.3       1 ACP         0.1980
     15 C4'        -0.1994    1.3333    2.4288 C.3       1 ACP         0.0815
     16 O4'        -1.1285    0.2356    2.5840 O.3       1 ACP        -0.4127
     17 C3'         1.0324    0.7610    1.7344 C.3       1 ACP         0.0890
     18 O3'         1.9175    0.2377    2.7247 O.3       1 ACP        -0.6221
     19 C2'         0.4468   -0.3802    0.9263 C.3       1 ACP         0.1067
     20 O2'         1.3993   -1.3703    0.5961 O.3       1 ACP        -0.6053
     21 C1'        -0.6159   -0.9100    1.8769 C.3       1 ACP         0.4223
     22 N9         -1.7127   -1.6108    1.2130 N.pl3     1 ACP        -0.6834
     23 C8         -1.7712   -2.9546    0.9544 C.ar      1 ACP         0.5614
     24 N7         -2.8883   -3.2948    0.3462 N.2       1 ACP        -0.5751
     25 C5         -3.5834   -2.1202    0.2043 C.ar      1 ACP        -0.2117
     26 C6         -4.8225   -1.8251   -0.3554 C.ar      1 ACP         0.7177
     27 N6         -5.6154   -2.8395   -0.9189 N.pl3     1 ACP        -0.9401
     28 N1         -5.2589   -0.5425   -0.3507 N.ar      1 ACP        -0.8008
     29 C2         -4.4510    0.3913    0.2069 C.ar      1 ACP         0.6565
     30 N3         -3.2368    0.2296    0.7767 N.ar      1 ACP        -0.7061
     31 C4         -2.8684   -1.0596    0.7376 C.ar      1 ACP         0.5715
     32 HOG3        0.7108    6.7391   -4.9116 H         1 ACP         0.4226
     33 HOB2       -0.6155    2.6615   -3.3020 H         1 ACP         0.4482
     34 H3B1        2.6832    4.6551   -2.6352 H         1 ACP         0.1012
     35 H3B2        2.2681    5.2436   -1.0278 H         1 ACP         0.1012
     36 H5'1       -1.7769    2.7851    2.1387 H         1 ACP         0.0481
     37 H5'2       -1.1653    2.0543    0.6320 H         1 ACP         0.0481
     38 H4'         0.0403    1.7078    3.4343 H         1 ACP         0.0904
     39 H3'         1.5906    1.4859    1.1353 H         1 ACP         0.0809
     40 HO3'        2.6839   -0.1150    2.2479 H         1 ACP         0.4528
     41 H2'        -0.0017    0.0018    0.0005 H         1 ACP         0.0594
     42 HO2'        2.0953   -0.9375    0.0709 H         1 ACP         0.4344
     43 H1'        -0.1998   -1.6319    2.6178 H         1 ACP         0.1127
     44 H8         -0.9745   -3.6312    1.2318 H         1 ACP         0.1050
     45 HN61       -5.2619   -3.7766   -0.9586 H         1 ACP         0.4211
     46 HN62       -6.4834   -2.5990   -1.3590 H         1 ACP         0.4211
     47 H2         -4.8317    1.4071    0.1930 H         1 ACP         0.0375
@<TRIPOS>BOND
     1    1    2 2
     2    1    3 1
     3    1    4 1
     4    1    8 1
     5    4   32 1
     6    5    6 2
     7    5    7 1
     8    5    8 1
     9    5   12 1
    10    7   33 1
    11    8   34 1
    12    8   35 1
    13    9   10 2
    14    9   11 1
    15    9   12 1
    16    9   13 1
    17   13   14 1
    18   14   15 1
    19   14   36 1
    20   14   37 1
    21   15   16 1
    22   15   17 1
    23   15   38 1
    24   16   21 1
    25   17   18 1
    26   17   19 1
    27   17   39 1
    28   18   40 1
    29   19   20 1
    30   19   21 1
    31   19   41 1
    32   20   42 1
    33   21   22 1
    34   21   43 1
    35   22   23 ar
    36   22   31 ar
    37   23   24 ar
    38   23   44 1
    39   24   25 ar
    40   25   26 ar
    41   25   31 ar
    42   26   27 1
    43   26   28 ar
    44   27   45 1
    45   27   46 1
    46   28   29 ar
    47   29   30 ar
    48   29   47 1
    49   30   31 ar
@<TRIPOS>SUBSTRUCTURE
     1 ACP         1 GROUP 0 A     ****
@<TRIPOS>MOLECULE
[[[5-(6-aminopurin-9-yl)-3,4-dihydroxy-tetrahydrofuran-2-yl]methoxy-oxido-phosphoryl]oxy-hydroxy-phosphoryl]methyl-hydroxy-phosphinate
   47    49     1     0     0
SMALL
USER_CHARGES

@<TRIPOS>ATOM
      1 PG         -4.9005    5.7364    1.5528 P.3       1 ACP         1.3516
      2 O1G        -5.8627    6.2792    0.5219 O.co2     1 ACP        -0.8379
      3 O2G        -5.3390    5.3718    2.9523 O.co2     1 ACP        -0.8379
      4 O3G        -4.0591    4.4966    0.9088 O.3       1 ACP        -0.7980
      5 PB         -2.1157    6.7274    2.8244 P.3       1 ACP         1.7688
      6 O1B        -2.4789    6.6260    4.2756 O.2       1 ACP        -0.9167
      7 O2B        -1.1294    7.9532    2.4553 O.3       1 ACP        -0.8201
      8 C3B        -3.5140    6.9504    1.7043 C.3       1 ACP        -0.6097
      9 PA          0.0332    4.7085    2.5761 P.3       1 ACP         1.5979
     10 O1A        -0.1161    4.0779    3.9435 O.co2     1 ACP        -0.8617
     11 O2A         1.1770    5.6544    2.2817 O.co2     1 ACP        -0.8617
     12 O3A        -1.3743    5.4401    2.1925 O.3       1 ACP        -0.8283
     13 O5'         0.0181    3.5132    1.4596 O.3       1 ACP        -0.5783
     14 C5'        -0.8811    2.4285    1.6206 C.3       1 ACP         0.1980
     15 C4'        -0.1994    1.3333    2.4288 C.3       1 ACP         0.0815
     16 O4'        -1.1285    0.2356    2.5840 O.3       1 ACP        -0.4127
     17 C3'         1.0324    0.7610    1.7344 C.3       1 ACP         0.0890
     18 O3'         1.9175    0.2377    2.7247 O.3       1 ACP        -0.6221
     19 C2'         0.4468   -0.3802    0.9263 C.3       1 ACP         0.1067
     20 O2'         1.3993   -1.3703    0.5961 O.3       1 ACP        -0.6053
     21 C1'        -0.6159   -0.9100    1.8769 C.3       1 ACP         0.4223
     22 N9         -1.7127   -1.6108    1.2130 N.pl3     1 ACP        -0.6834
     23 C8         -2.8641   -1.0399    0.7392 C.ar      1 ACP         0.5614
     24 N7         -3.6659   -1.9257    0.1858 N.2       1 ACP        -0.5751
     25 C5         -3.0053   -3.1223    0.3069 C.ar      1 ACP        -0.2117
     26 C6         -3.3321   -4.4178   -0.0813 C.ar      1 ACP         0.7177
     27 N6         -4.5476   -4.6866   -0.7335 N.pl3     1 ACP        -0.9401
     28 N1         -2.4608   -5.4225    0.1773 N.ar      1 ACP        -0.8008
     29 C2         -1.3053   -5.1020    0.8081 C.ar      1 ACP         0.6565
     30 N3         -0.8788   -3.8921    1.2315 N.ar      1 ACP        -0.7061
     31 C4         -1.7870   -2.9477    0.9438 C.ar      1 ACP         0.5715
     32 HOG3       -4.5534    3.7120    0.5889 H         1 ACP         0.4226
     33 HOB2       -0.2442    7.9938    2.8758 H         1 ACP         0.4482
     34 H3B1       -3.1114    7.0773    0.6930 H         1 ACP         0.1012
     35 H3B2       -3.9948    7.8955    1.9785 H         1 ACP         0.1012
     36 H5'1       -1.7769    2.7851    2.1387 H         1 ACP         0.0481
     37 H5'2       -1.1653    2.0543    0.6320 H         1 ACP         0.0481
     38 H4'         0.0403    1.7078    3.4343 H         1 ACP         0.0904
     39 H3'         1.5906    1.4859    1.1353 H         1 ACP         0.0809
     40 HO3'        2.6839   -0.1150    2.2479 H         1 ACP         0.4528
     41 H2'        -0.0017    0.0018    0.0005 H         1 ACP         0.0594
     42 HO2'        2.0953   -0.9375    0.0709 H         1 ACP         0.4344
     43 H1'        -0.1998   -1.6319    2.6178 H         1 ACP         0.1127
     44 H8         -3.0609    0.0200    0.8250 H         1 ACP         0.1050
     45 HN61       -5.2046   -3.9433   -0.8775 H         1 ACP         0.4211
     46 HN62       -4.7849   -5.6332   -0.9625 H         1 ACP         0.4211
     47 H2         -0.6318   -5.9307    0.9993 H         1 ACP         0.0375
@<TRIPOS>BOND
     1    1    2 2
     2    1    3 1
     3    1    4 1
     4    1    8 1
     5    4   32 1
     6    5    6 2
     7    5    7 1
     8    5    8 1
     9    5   12 1
    10    7   33 1
    11    8   34 1
    12    8   35 1
    13    9   10 2
    14    9   11 1
    15    9   12 1
    16    9   13 1
    17   13   14 1
    18   14   15 1
    19   14   36 1
    20   14   37 1
    21   15   16 1
    22   15   17 1
    23   15   38 1
    24   16   21 1
    25   17   18 1
    26   17   19 1
    27   17   39 1
    28   18   40 1
    29   19   20 1
    30   19   21 1
    31   19   41 1
    32   20   42 1
    33   21   22 1
    34   21   43 1
    35   22   23 ar
    36   22   31 ar
    37   23   24 ar
    38   23   44 1
    39   24   25 ar
    40   25   26 ar
    41   25   31 ar
    42   26   27 1
    43   26   28 ar
    44   27   45 1
    45   27   46 1
    46   28   29 ar
    47   29   30 ar
    48   29   47 1
    49   30   31 ar
@<TRIPOS>SUBSTRUCTURE
     1 ACP         1 GROUP 0 A     ****
@<TRIPOS>MOLECULE
[[[5-(6-aminopurin-9-yl)-3,4-dihydroxy-tetrahydrofuran-2-yl]methoxy-oxido-phosphoryl]oxy-hydroxy-phosphoryl]methyl-hydroxy-phosphinate
   47    49     1     0     0
SMALL
USER_CHARGES

@<TRIPOS>ATOM
      1 PG          6.3846    5.8390   -1.6454 P.3       1 ACP         1.3516
      2 O1G         7.1428    7.0975   -1.9985 O.co2     1 ACP        -0.8379
      3 O2G         6.8071    4.9342   -0.5111 O.co2     1 ACP        -0.8379
      4 O3G         4.7977    6.1856   -1.4991 O.3       1 ACP        -0.7980
      5 PB          5.4741    3.1966   -3.2401 P.3       1 ACP         1.7688
      6 O1B         5.5130    2.5216   -4.5783 O.2       1 ACP        -0.9167
      7 O2B         3.9905    3.4983   -2.6747 O.3       1 ACP        -0.8201
      8 C3B         6.2924    4.8047   -3.1754 C.3       1 ACP        -0.6097
      9 PA          5.8980    0.9306   -1.3851 P.3       1 ACP         1.5979
     10 O1A         6.7587    0.7749   -0.1503 O.co2     1 ACP        -0.8617
     11 O2A         5.9322   -0.1059   -2.4870 O.co2     1 ACP        -0.8617
     12 O3A         6.1874    2.4018   -2.0295 O.3       1 ACP        -0.8283
     13 O5'         4.3515    1.1573   -0.9028 O.3       1 ACP        -0.5783
     14 C5'         4.0922    1.9801    0.2227 C.3       1 ACP         0.1980
     15 C4'         2.5944    2.0310    0.4653 C.3       1 ACP         0.0815
     16 O4'         1.9327    2.5740   -0.6889 O.3       1 ACP        -0.4127
     17 C3'         1.9685    0.6634    0.6767 C.3       1 ACP         0.0890
     18 O3'         2.1425    0.1975    1.9977 O.3       1 ACP        -0.6221
     19 C2'         0.5176    0.9128    0.3099 C.3       1 ACP         0.1067
     20 O2'        -0.2103    1.4454    1.4152 O.3       1 ACP        -0.6053
     21 C1'         0.6219    1.9765   -0.7844 C.3       1 ACP         0.4223
     22 N9          0.4237    1.4496   -2.1357 N.pl3     1 ACP        -0.6834
     23 C8          1.1856    0.4888   -2.7458 C.ar      1 ACP         0.5614
     24 N7          0.7615    0.2176   -3.9625 N.2       1 ACP        -0.5751
     25 C5         -0.3220    1.0389   -4.1486 C.ar      1 ACP        -0.2117
     26 C6         -1.1900    1.2182   -5.2210 C.ar      1 ACP         0.7177
     27 N6         -1.0341    0.4739   -6.4028 N.pl3     1 ACP        -0.9401
     28 N1         -2.1929    2.1227   -5.1127 N.ar      1 ACP        -0.8008
     29 C2         -2.2930    2.8097   -3.9492 C.ar      1 ACP         0.6565
     30 N3         -1.5176    2.7252   -2.8462 N.ar      1 ACP        -0.7061
     31 C4         -0.5489    1.8142   -3.0226 C.ar      1 ACP         0.5715
     32 HOG3        4.5226    6.8424   -0.8244 H         1 ACP         0.4226
     33 HOB2        3.3769    2.7475   -2.5265 H         1 ACP         0.4482
     34 H3B1        5.8357    5.4400   -3.9427 H         1 ACP         0.1012
     35 H3B2        7.3347    4.6443   -3.4712 H         1 ACP         0.1012
     36 H5'1        4.6070    1.5616    1.0933 H         1 ACP         0.0481
     37 H5'2        4.4825    2.9835    0.0252 H         1 ACP         0.0481
     38 H4'         2.3751    2.7029    1.3156 H         1 ACP         0.0904
     39 H3'         2.4336   -0.1217   -0.0015 H         1 ACP         0.0809
     40 HO3'        1.7160   -0.6716    2.0397 H         1 ACP         0.4528
     41 H2'         0.0316    0.0155   -0.0339 H         1 ACP         0.0594
     42 HO2'       -0.1608    0.7921    2.1351 H         1 ACP         0.4344
     43 H1'        -0.1474    2.7798   -0.6651 H         1 ACP         0.1127
     44 H8          2.0314    0.0256   -2.2564 H         1 ACP         0.1050
     45 HN61       -0.2609   -0.1582   -6.4888 H         1 ACP         0.4211
     46 HN62       -1.6409    0.6517   -7.1807 H         1 ACP         0.4211
     47 H2         -3.1067    3.5253   -3.8975 H         1 ACP         0.0375
@<TRIPOS>BOND
     1    1    2 2
     2    1    3 1
     3    1    4 1
     4    1    8 1
     5    4   32 1
     6    5    6 2
     7    5    7 1
     8    5    8 1
     9    5   12 1
    10    7   33 1
    11    8   34 1
    12    8   35 1
    13    9   10 2
    14    9   11 1
    15    9   12 1
    16    9   13 1
    17   13   14 1
    18   14   15 1
    19   14   36 1
    20   14   37 1
    21   15   16 1
    22   15   17 1
    23   15   38 1
    24   16   21 1
    25   17   18 1
    26   17   19 1
    27   17   39 1
    28   18   40 1
    29   19   20 1
    30   19   21 1
    31   19   41 1
    32   20   42 1
    33   21   22 1
    34   21   43 1
    35   22   23 ar
    36   22   31 ar
    37   23   24 ar
    38   23   44 1
    39   24   25 ar
    40   25   26 ar
    41   25   31 ar
    42   26   27 1
    43   26   28 ar
    44   27   45 1
    45   27   46 1
    46   28   29 ar
    47   29   30 ar
    48   29   47 1
    49   30   31 ar
@<TRIPOS>SUBSTRUCTURE
     1 ACP         1 GROUP 0 A     ****
@<TRIPOS>MOLECULE
[[[5-(6-aminopurin-9-yl)-3,4-dihydroxy-tetrahydrofuran-2-yl]methoxy-oxido-phosphoryl]oxy-hydroxy-phosphoryl]methyl-hydroxy-phosphinate
   47    49     1     0     0
SMALL
USER_CHARGES

@<TRIPOS>ATOM
      1 PG          7.0853    6.2021    0.0866 P.3       1 ACP         1.3516
      2 O1G         8.1170    7.2862   -0.1225 O.co2     1 ACP        -0.8379
      3 O2G         5.6009    6.4805    0.0345 O.co2     1 ACP        -0.8379
      4 O3G         7.4320    4.9316   -0.8754 O.3       1 ACP        -0.7980
      5 PB          6.4680    4.0506    2.3983 P.3       1 ACP         1.7688
      6 O1B         5.0187    4.3642    2.6204 O.2       1 ACP        -0.9167
      7 O2B         7.2814    3.6221    3.7274 O.3       1 ACP        -0.8201
      8 C3B         7.4442    5.4083    1.7176 C.3       1 ACP        -0.6097
      9 PA          6.3567    1.2769    1.3738 P.3       1 ACP         1.5979
     10 O1A         6.7670    0.6862    2.7051 O.co2     1 ACP        -0.8617
     11 O2A         6.7982    0.6375    0.0753 O.co2     1 ACP        -0.8617
     12 O3A         6.7784    2.8535    1.3607 O.3       1 ACP        -0.8283
     13 O5'         4.7294    1.4426    1.3699 O.3       1 ACP        -0.5783
     14 C5'         4.0922    1.9801    0.2227 C.3       1 ACP         0.1980
     15 C4'         2.5944    2.0310    0.4653 C.3       1 ACP         0.0815
     16 O4'         1.9327    2.5740   -0.6889 O.3       1 ACP        -0.4127
     17 C3'         1.9685    0.6634    0.6767 C.3       1 ACP         0.0890
     18 O3'         2.1425    0.1975    1.9977 O.3       1 ACP        -0.6221
     19 C2'         0.5176    0.9128    0.3099 C.3       1 ACP         0.1067
     20 O2'        -0.2103    1.4454    1.4152 O.3       1 ACP        -0.6053
     21 C1'         0.6219    1.9765   -0.7844 C.3       1 ACP         0.4223
     22 N9          0.4237    1.4496   -2.1357 N.pl3     1 ACP        -0.6834
     23 C8          1.4026    0.9717   -2.9660 C.ar      1 ACP         0.5614
     24 N7          0.9183    0.5619   -4.1197 N.2       1 ACP        -0.5751
     25 C5         -0.4330    0.7845   -4.0331 C.ar      1 ACP        -0.2117
     26 C6         -1.4794    0.5615   -4.9225 C.ar      1 ACP         0.7177
     27 N6         -1.2378    0.0044   -6.1899 N.pl3     1 ACP        -0.9401
     28 N1         -2.7406    0.8885   -4.5512 N.ar      1 ACP        -0.8008
     29 C2         -2.9113    1.4216   -3.3172 C.ar      1 ACP         0.6565
     30 N3         -1.9824    1.6843   -2.3721 N.ar      1 ACP        -0.7061
     31 C4         -0.7613    1.3370   -2.8054 C.ar      1 ACP         0.5715
     32 HOG3        7.4554    5.0723   -1.8459 H         1 ACP         0.4226
     33 HOB2        6.9903    2.8303    4.2278 H         1 ACP         0.4482
     34 H3B1        8.4869    5.0745    1.6685 H         1 ACP         0.1012
     35 H3B2        7.4037    6.2262    2.4449 H         1 ACP         0.1012
     36 H5'1        4.4844    2.9853    0.0382 H         1 ACP         0.0481
     37 H5'2        4.3192    1.3445   -0.6390 H         1 ACP         0.0481
     38 H4'         2.3751    2.7029    1.3156 H         1 ACP         0.0904
     39 H3'         2.4336   -0.1217   -0.0015 H         1 ACP         0.0809
     40 HO3'        3.0987    0.1465    2.1461 H         1 ACP         0.4528
     41 H2'         0.0316    0.0155   -0.0339 H         1 ACP         0.0594
     42 HO2'       -0.1608    0.7921    2.1351 H         1 ACP         0.4344
     43 H1'        -0.1474    2.7798   -0.6651 H         1 ACP         0.1127
     44 H8          2.4442    0.9470   -2.6763 H         1 ACP         0.1050
     45 HN61       -0.2955   -0.1901   -6.4713 H         1 ACP         0.4211
     46 HN62       -1.9987   -0.1045   -6.8334 H         1 ACP         0.4211
     47 H2         -3.9335    1.6716   -3.0534 H         1 ACP         0.0375
@<TRIPOS>BOND
     1    1    2 2
     2    1    3 1
     3    1    4 1
     4    1    8 1
     5    4   32 1
     6    5    6 2
     7    5    7 1
     8    5    8 1
     9    5   12 1
    10    7   33 1
    11    8   34 1
    12    8   35 1
    13    9   10 2
    14    9   11 1
    15    9   12 1
    16    9   13 1
    17   13   14 1
    18   14   15 1
    19   14   36 1
    20   14   37 1
    21   15   16 1
    22   15   17 1
    23   15   38 1
    24   16   21 1
    25   17   18 1
    26   17   19 1
    27   17   39 1
    28   18   40 1
    29   19   20 1
    30   19   21 1
    31   19   41 1
    32   20   42 1
    33   21   22 1
    34   21   43 1
    35   22   23 ar
    36   22   31 ar
    37   23   24 ar
    38   23   44 1
    39   24   25 ar
    40   25   26 ar
    41   25   31 ar
    42   26   27 1
    43   26   28 ar
    44   27   45 1
    45   27   46 1
    46   28   29 ar
    47   29   30 ar
    48   29   47 1
    49   30   31 ar
@<TRIPOS>SUBSTRUCTURE
     1 ACP         1 GROUP 0 A     ****
@<TRIPOS>MOLECULE
[[[5-(6-aminopurin-9-yl)-3,4-dihydroxy-tetrahydrofuran-2-yl]methoxy-oxido-phosphoryl]oxy-hydroxy-phosphoryl]methyl-hydroxy-phosphinate
   47    49     1     0     0
SMALL
USER_CHARGES

@<TRIPOS>ATOM
      1 PG          0.1889    8.4932    0.6969 P.3       1 ACP         1.3516
      2 O1G         1.1324    7.8347    1.6765 O.co2     1 ACP        -0.8379
      3 O2G        -0.7604    9.5949    1.1076 O.co2     1 ACP        -0.8379
      4 O3G         1.0209    8.9606   -0.6258 O.3       1 ACP        -0.7980
      5 PB         -1.8903    6.0426    0.8568 P.3       1 ACP         1.7688
      6 O1B        -2.6216    5.0251    0.0334 O.2       1 ACP        -0.9167
      7 O2B        -2.8392    7.0446    1.6978 O.3       1 ACP        -0.8201
      8 C3B        -0.8196    7.1531   -0.0815 C.3       1 ACP        -0.6097
      9 PA         -1.1367    4.4810    3.2545 P.3       1 ACP         1.5979
     10 O1A        -2.2478    5.0798    4.0892 O.co2     1 ACP        -0.8617
     11 O2A         0.1952    4.1272    3.8795 O.co2     1 ACP        -0.8617
     12 O3A        -0.8797    5.4536    1.9694 O.3       1 ACP        -0.8283
     13 O5'        -1.7337    3.1724    2.4753 O.3       1 ACP        -0.5783
     14 C5'        -0.8811    2.4285    1.6206 C.3       1 ACP         0.1980
     15 C4'        -0.1994    1.3333    2.4288 C.3       1 ACP         0.0815
     16 O4'        -1.1285    0.2356    2.5840 O.3       1 ACP        -0.4127
     17 C3'         1.0324    0.7610    1.7344 C.3       1 ACP         0.0890
     18 O3'         1.9175    0.2377    2.7247 O.3       1 ACP        -0.6221
     19 C2'         0.4468   -0.3802    0.9263 C.3       1 ACP         0.1067
     20 O2'         1.3993   -1.3703    0.5961 O.3       1 ACP        -0.6053
     21 C1'        -0.6159   -0.9100    1.8769 C.3       1 ACP         0.4223
     22 N9         -1.7127   -1.6108    1.2130 N.pl3     1 ACP        -0.6834
     23 C8         -2.8641   -1.0399    0.7392 C.ar      1 ACP         0.5614
     24 N7         -3.6659   -1.9257    0.1858 N.2       1 ACP        -0.5751
     25 C5         -3.0053   -3.1223    0.3069 C.ar      1 ACP        -0.2117
     26 C6         -3.3321   -4.4178   -0.0813 C.ar      1 ACP         0.7177
     27 N6         -4.5476   -4.6866   -0.7335 N.pl3     1 ACP        -0.9401
     28 N1         -2.4608   -5.4225    0.1773 N.ar      1 ACP        -0.8008
     29 C2         -1.3053   -5.1020    0.8081 C.ar      1 ACP         0.6565
     30 N3         -0.8788   -3.8921    1.2315 N.ar      1 ACP        -0.7061
     31 C4         -1.7870   -2.9477    0.9438 C.ar      1 ACP         0.5715
     32 HOG3        1.7551    9.6016   -0.5143 H         1 ACP         0.4226
     33 HOB2       -3.4551    6.6695    2.3627 H         1 ACP         0.4482
     34 H3B1       -1.4366    7.6427   -0.8434 H         1 ACP         0.1012
     35 H3B2       -0.0949    6.5255   -0.6110 H         1 ACP         0.1012
     36 H5'1       -1.4802    1.9928    0.8147 H         1 ACP         0.0481
     37 H5'2       -0.1369    3.1042    1.1873 H         1 ACP         0.0481
     38 H4'         0.0403    1.7078    3.4343 H         1 ACP         0.0904
     39 H3'         1.5906    1.4859    1.1353 H         1 ACP         0.0809
     40 HO3'        2.1521    0.9800    3.3017 H         1 ACP         0.4528
     41 H2'        -0.0017    0.0018    0.0005 H         1 ACP         0.0594
     42 HO2'        0.9369   -2.0558    0.0825 H         1 ACP         0.4344
     43 H1'        -0.1998   -1.6319    2.6178 H         1 ACP         0.1127
     44 H8         -3.0609    0.0200    0.8250 H         1 ACP         0.1050
     45 HN61       -5.2046   -3.9433   -0.8775 H         1 ACP         0.4211
     46 HN62       -4.7849   -5.6332   -0.9625 H         1 ACP         0.4211
     47 H2         -0.6318   -5.9307    0.9993 H         1 ACP         0.0375
@<TRIPOS>BOND
     1    1    2 2
     2    1    3 1
     3    1    4 1
     4    1    8 1
     5    4   32 1
     6    5    6 2
     7    5    7 1
     8    5    8 1
     9    5   12 1
    10    7   33 1
    11    8   34 1
    12    8   35 1
    13    9   10 2
    14    9   11 1
    15    9   12 1
    16    9   13 1
    17   13   14 1
    18   14   15 1
    19   14   36 1
    20   14   37 1
    21   15   16 1
    22   15   17 1
    23   15   38 1
    24   16   21 1
    25   17   18 1
    26   17   19 1
    27   17   39 1
    28   18   40 1
    29   19   20 1
    30   19   21 1
    31   19   41 1
    32   20   42 1
    33   21   22 1
    34   21   43 1
    35   22   23 ar
    36   22   31 ar
    37   23   24 ar
    38   23   44 1
    39   24   25 ar
    40   25   26 ar
    41   25   31 ar
    42   26   27 1
    43   26   28 ar
    44   27   45 1
    45   27   46 1
    46   28   29 ar
    47   29   30 ar
    48   29   47 1
    49   30   31 ar
@<TRIPOS>SUBSTRUCTURE
     1 ACP         1 GROUP 0 A     ****
@<TRIPOS>MOLECULE
[[[5-(6-aminopurin-9-yl)-3,4-dihydroxy-tetrahydrofuran-2-yl]methoxy-oxido-phosphoryl]oxy-hydroxy-phosphoryl]methyl-hydroxy-phosphinate
   47    49     1     0     0
SMALL
USER_CHARGES

@<TRIPOS>ATOM
      1 PG         -4.8148    5.2782    1.8218 P.3       1 ACP         1.3516
      2 O1G        -6.1313    5.9922    2.0225 O.co2     1 ACP        -0.8379
      3 O2G        -4.1442    4.4969    2.9280 O.co2     1 ACP        -0.8379
      4 O3G        -4.8985    4.3543    0.4804 O.3       1 ACP        -0.7980
      5 PB         -1.8779    6.1374    0.8265 P.3       1 ACP         1.7688
      6 O1B        -1.0588    7.2966    0.3434 O.2       1 ACP        -0.9167
      7 O2B        -1.9875    4.9039   -0.2119 O.3       1 ACP        -0.8201
      8 C3B        -3.5983    6.5289    1.2096 C.3       1 ACP        -0.6097
      9 PA          0.0332    4.7085    2.5761 P.3       1 ACP         1.5979
     10 O1A        -0.1161    4.0779    3.9435 O.co2     1 ACP        -0.8617
     11 O2A         1.1770    5.6544    2.2817 O.co2     1 ACP        -0.8617
     12 O3A        -1.3743    5.4401    2.1925 O.3       1 ACP        -0.8283
     13 O5'         0.0181    3.5132    1.4596 O.3       1 ACP        -0.5783
     14 C5'        -0.8811    2.4285    1.6206 C.3       1 ACP         0.1980
     15 C4'        -0.1994    1.3333    2.4288 C.3       1 ACP         0.0815
     16 O4'        -1.1285    0.2356    2.5840 O.3       1 ACP        -0.4127
     17 C3'         1.0324    0.7610    1.7344 C.3       1 ACP         0.0890
     18 O3'         1.9175    0.2377    2.7247 O.3       1 ACP        -0.6221
     19 C2'         0.4468   -0.3802    0.9263 C.3       1 ACP         0.1067
     20 O2'         1.3993   -1.3703    0.5961 O.3       1 ACP        -0.6053
     21 C1'        -0.6159   -0.9100    1.8769 C.3       1 ACP         0.4223
     22 N9         -1.7127   -1.6108    1.2130 N.pl3     1 ACP        -0.6834
     23 C8         -1.7712   -2.9546    0.9544 C.ar      1 ACP         0.5614
     24 N7         -2.8883   -3.2948    0.3462 N.2       1 ACP        -0.5751
     25 C5         -3.5834   -2.1202    0.2043 C.ar      1 ACP        -0.2117
     26 C6         -4.8225   -1.8251   -0.3554 C.ar      1 ACP         0.7177
     27 N6         -5.6154   -2.8395   -0.9189 N.pl3     1 ACP        -0.9401
     28 N1         -5.2589   -0.5425   -0.3507 N.ar      1 ACP        -0.8008
     29 C2         -4.4510    0.3913    0.2069 C.ar      1 ACP         0.6565
     30 N3         -3.2368    0.2296    0.7767 N.ar      1 ACP        -0.7061
     31 C4         -2.8684   -1.0596    0.7376 C.ar      1 ACP         0.5715
     32 HOG3       -5.5766    3.6466    0.4414 H         1 ACP         0.4226
     33 HOB2       -1.1666    4.4499   -0.4985 H         1 ACP         0.4482
     34 H3B1       -4.0452    6.9713    0.3121 H         1 ACP         0.1012
     35 H3B2       -3.5843    7.3092    1.9781 H         1 ACP         0.1012
     36 H5'1       -1.7769    2.7851    2.1387 H         1 ACP         0.0481
     37 H5'2       -1.1653    2.0543    0.6320 H         1 ACP         0.0481
     38 H4'         0.0403    1.7078    3.4343 H         1 ACP         0.0904
     39 H3'         1.5906    1.4859    1.1353 H         1 ACP         0.0809
     40 HO3'        2.6839   -0.1150    2.2479 H         1 ACP         0.4528
     41 H2'        -0.0017    0.0018    0.0005 H         1 ACP         0.0594
     42 HO2'        0.9369   -2.0558    0.0825 H         1 ACP         0.4344
     43 H1'        -0.1998   -1.6319    2.6178 H         1 ACP         0.1127
     44 H8         -0.9745   -3.6312    1.2318 H         1 ACP         0.1050
     45 HN61       -5.2619   -3.7766   -0.9586 H         1 ACP         0.4211
     46 HN62       -6.4834   -2.5990   -1.3590 H         1 ACP         0.4211
     47 H2         -4.8317    1.4071    0.1930 H         1 ACP         0.0375
@<TRIPOS>BOND
     1    1    2 2
     2    1    3 1
     3    1    4 1
     4    1    8 1
     5    4   32 1
     6    5    6 2
     7    5    7 1
     8    5    8 1
     9    5   12 1
    10    7   33 1
    11    8   34 1
    12    8   35 1
    13    9   10 2
    14    9   11 1
    15    9   12 1
    16    9   13 1
    17   13   14 1
    18   14   15 1
    19   14   36 1
    20   14   37 1
    21   15   16 1
    22   15   17 1
    23   15   38 1
    24   16   21 1
    25   17   18 1
    26   17   19 1
    27   17   39 1
    28   18   40 1
    29   19   20 1
    30   19   21 1
    31   19   41 1
    32   20   42 1
    33   21   22 1
    34   21   43 1
    35   22   23 ar
    36   22   31 ar
    37   23   24 ar
    38   23   44 1
    39   24   25 ar
    40   25   26 ar
    41   25   31 ar
    42   26   27 1
    43   26   28 ar
    44   27   45 1
    45   27   46 1
    46   28   29 ar
    47   29   30 ar
    48   29   47 1
    49   30   31 ar
@<TRIPOS>SUBSTRUCTURE
     1 ACP         1 GROUP 0 A     ****
@<TRIPOS>MOLECULE
[[[5-(6-aminopurin-9-yl)-3,4-dihydroxy-tetrahydrofuran-2-yl]methoxy-oxido-phosphoryl]oxy-hydroxy-phosphoryl]methyl-hydroxy-phosphinate
   47    49     1     0     0
SMALL
USER_CHARGES

@<TRIPOS>ATOM
      1 PG          1.4860    6.2859    0.1171 P.3       1 ACP         1.3516
      2 O1G         0.3105    6.9190    0.8248 O.co2     1 ACP        -0.8379
      3 O2G         2.8303    6.9689    0.0170 O.co2     1 ACP        -0.8379
      4 O3G         1.6917    4.7633    0.6641 O.3       1 ACP        -0.7980
      5 PB         -0.6920    5.2165   -1.9963 P.3       1 ACP         1.7688
      6 O1B        -0.9335    4.9572   -3.4532 O.2       1 ACP        -0.9167
      7 O2B        -1.7100    6.2717   -1.3166 O.3       1 ACP        -0.8201
      8 C3B         0.9399    5.8809   -1.6024 C.3       1 ACP        -0.6097
      9 PA         -1.9977    2.8866   -0.7226 P.3       1 ACP         1.5979
     10 O1A        -2.2657    2.0869   -1.9790 O.co2     1 ACP        -0.8617
     11 O2A        -3.1169    3.6285   -0.0250 O.co2     1 ACP        -0.8617
     12 O3A        -0.7786    3.9277   -1.0279 O.3       1 ACP        -0.8283
     13 O5'        -1.2434    1.9102    0.3513 O.3       1 ACP        -0.5783
     14 C5'        -0.8811    2.4285    1.6206 C.3       1 ACP         0.1980
     15 C4'        -0.1994    1.3333    2.4288 C.3       1 ACP         0.0815
     16 O4'        -1.1285    0.2356    2.5840 O.3       1 ACP        -0.4127
     17 C3'         1.0324    0.7610    1.7344 C.3       1 ACP         0.0890
     18 O3'         1.9175    0.2377    2.7247 O.3       1 ACP        -0.6221
     19 C2'         0.4468   -0.3802    0.9263 C.3       1 ACP         0.1067
     20 O2'         1.3993   -1.3703    0.5961 O.3       1 ACP        -0.6053
     21 C1'        -0.6159   -0.9100    1.8769 C.3       1 ACP         0.4223
     22 N9         -1.7127   -1.6108    1.2130 N.pl3     1 ACP        -0.6834
     23 C8         -2.8641   -1.0399    0.7392 C.ar      1 ACP         0.5614
     24 N7         -3.6659   -1.9257    0.1858 N.2       1 ACP        -0.5751
     25 C5         -3.0053   -3.1223    0.3069 C.ar      1 ACP        -0.2117
     26 C6         -3.3321   -4.4178   -0.0813 C.ar      1 ACP         0.7177
     27 N6         -4.5476   -4.6866   -0.7335 N.pl3     1 ACP        -0.9401
     28 N1         -2.4608   -5.4225    0.1773 N.ar      1 ACP        -0.8008
     29 C2         -1.3053   -5.1020    0.8081 C.ar      1 ACP         0.6565
     30 N3         -0.8788   -3.8921    1.2315 N.ar      1 ACP        -0.7061
     31 C4         -1.7870   -2.9477    0.9438 C.ar      1 ACP         0.5715
     32 HOG3        1.8716    4.6296    1.6191 H         1 ACP         0.4226
     33 HOB2       -2.6705    6.0730   -1.3174 H         1 ACP         0.4482
     34 H3B1        1.0737    6.7986   -2.1862 H         1 ACP         0.1012
     35 H3B2        1.6759    5.1576   -1.9695 H         1 ACP         0.1012
     36 H5'1       -0.2034    3.2760    1.4766 H         1 ACP         0.0481
     37 H5'2       -1.7842    2.7761    2.1321 H         1 ACP         0.0481
     38 H4'         0.0403    1.7078    3.4343 H         1 ACP         0.0904
     39 H3'         1.5906    1.4859    1.1353 H         1 ACP         0.0809
     40 HO3'        2.1521    0.9800    3.3017 H         1 ACP         0.4528
     41 H2'        -0.0017    0.0018    0.0005 H         1 ACP         0.0594
     42 HO2'        0.9369   -2.0558    0.0825 H         1 ACP         0.4344
     43 H1'        -0.1998   -1.6319    2.6178 H         1 ACP         0.1127
     44 H8         -3.0609    0.0200    0.8250 H         1 ACP         0.1050
     45 HN61       -5.2046   -3.9433   -0.8775 H         1 ACP         0.4211
     46 HN62       -4.7849   -5.6332   -0.9625 H         1 ACP         0.4211
     47 H2         -0.6318   -5.9307    0.9993 H         1 ACP         0.0375
@<TRIPOS>BOND
     1    1    2 2
     2    1    3 1
     3    1    4 1
     4    1    8 1
     5    4   32 1
     6    5    6 2
     7    5    7 1
     8    5    8 1
     9    5   12 1
    10    7   33 1
    11    8   34 1
    12    8   35 1
    13    9   10 2
    14    9   11 1
    15    9   12 1
    16    9   13 1
    17   13   14 1
    18   14   15 1
    19   14   36 1
    20   14   37 1
    21   15   16 1
    22   15   17 1
    23   15   38 1
    24   16   21 1
    25   17   18 1
    26   17   19 1
    27   17   39 1
    28   18   40 1
    29   19   20 1
    30   19   21 1
    31   19   41 1
    32   20   42 1
    33   21   22 1
    34   21   43 1
    35   22   23 ar
    36   22   31 ar
    37   23   24 ar
    38   23   44 1
    39   24   25 ar
    40   25   26 ar
    41   25   31 ar
    42   26   27 1
    43   26   28 ar
    44   27   45 1
    45   27   46 1
    46   28   29 ar
    47   29   30 ar
    48   29   47 1
    49   30   31 ar
@<TRIPOS>SUBSTRUCTURE
     1 ACP         1 GROUP 0 A     ****
@<TRIPOS>MOLECULE
[[[5-(6-aminopurin-9-yl)-3,4-dihydroxy-tetrahydrofuran-2-yl]methoxy-oxido-phosphoryl]oxy-hydroxy-phosphoryl]methyl-hydroxy-phosphinate
   47    49     1     0     0
SMALL
USER_CHARGES

@<TRIPOS>ATOM
      1 PG         -4.8148    5.2782    1.8218 P.3       1 ACP         1.3516
      2 O1G        -6.1313    5.9922    2.0225 O.co2     1 ACP        -0.8379
      3 O2G        -4.1442    4.4969    2.9280 O.co2     1 ACP        -0.8379
      4 O3G        -4.8985    4.3543    0.4804 O.3       1 ACP        -0.7980
      5 PB         -1.8779    6.1374    0.8265 P.3       1 ACP         1.7688
      6 O1B        -1.0588    7.2966    0.3434 O.2       1 ACP        -0.9167
      7 O2B        -1.9875    4.9039   -0.2119 O.3       1 ACP        -0.8201
      8 C3B        -3.5983    6.5289    1.2096 C.3       1 ACP        -0.6097
      9 PA          0.0332    4.7085    2.5761 P.3       1 ACP         1.5979
     10 O1A        -0.1161    4.0779    3.9435 O.co2     1 ACP        -0.8617
     11 O2A         1.1770    5.6544    2.2817 O.co2     1 ACP        -0.8617
     12 O3A        -1.3743    5.4401    2.1925 O.3       1 ACP        -0.8283
     13 O5'         0.0181    3.5132    1.4596 O.3       1 ACP        -0.5783
     14 C5'        -0.8811    2.4285    1.6206 C.3       1 ACP         0.1980
     15 C4'        -0.1994    1.3333    2.4288 C.3       1 ACP         0.0815
     16 O4'        -1.1285    0.2356    2.5840 O.3       1 ACP        -0.4127
     17 C3'         1.0324    0.7610    1.7344 C.3       1 ACP         0.0890
     18 O3'         1.9175    0.2377    2.7247 O.3       1 ACP        -0.6221
     19 C2'         0.4468   -0.3802    0.9263 C.3       1 ACP         0.1067
     20 O2'         1.3993   -1.3703    0.5961 O.3       1 ACP        -0.6053
     21 C1'        -0.6159   -0.9100    1.8769 C.3       1 ACP         0.4223
     22 N9         -1.7127   -1.6108    1.2130 N.pl3     1 ACP        -0.6834
     23 C8         -2.8641   -1.0399    0.7392 C.ar      1 ACP         0.5614
     24 N7         -3.6659   -1.9257    0.1858 N.2       1 ACP        -0.5751
     25 C5         -3.0053   -3.1223    0.3069 C.ar      1 ACP        -0.2117
     26 C6         -3.3321   -4.4178   -0.0813 C.ar      1 ACP         0.7177
     27 N6         -4.5476   -4.6866   -0.7335 N.pl3     1 ACP        -0.9401
     28 N1         -2.4608   -5.4225    0.1773 N.ar      1 ACP        -0.8008
     29 C2         -1.3053   -5.1020    0.8081 C.ar      1 ACP         0.6565
     30 N3         -0.8788   -3.8921    1.2315 N.ar      1 ACP        -0.7061
     31 C4         -1.7870   -2.9477    0.9438 C.ar      1 ACP         0.5715
     32 HOG3       -5.5766    3.6466    0.4414 H         1 ACP         0.4226
     33 HOB2       -1.1666    4.4499   -0.4985 H         1 ACP         0.4482
     34 H3B1       -4.0452    6.9713    0.3121 H         1 ACP         0.1012
     35 H3B2       -3.5843    7.3092    1.9781 H         1 ACP         0.1012
     36 H5'1       -1.7769    2.7851    2.1387 H         1 ACP         0.0481
     37 H5'2       -1.1653    2.0543    0.6320 H         1 ACP         0.0481
     38 H4'         0.0403    1.7078    3.4343 H         1 ACP         0.0904
     39 H3'         1.5906    1.4859    1.1353 H         1 ACP         0.0809
     40 HO3'        2.1521    0.9800    3.3017 H         1 ACP         0.4528
     41 H2'        -0.0017    0.0018    0.0005 H         1 ACP         0.0594
     42 HO2'        2.0953   -0.9375    0.0709 H         1 ACP         0.4344
     43 H1'        -0.1998   -1.6319    2.6178 H         1 ACP         0.1127
     44 H8         -3.0609    0.0200    0.8250 H         1 ACP         0.1050
     45 HN61       -5.2046   -3.9433   -0.8775 H         1 ACP         0.4211
     46 HN62       -4.7849   -5.6332   -0.9625 H         1 ACP         0.4211
     47 H2         -0.6318   -5.9307    0.9993 H         1 ACP         0.0375
@<TRIPOS>BOND
     1    1    2 2
     2    1    3 1
     3    1    4 1
     4    1    8 1
     5    4   32 1
     6    5    6 2
     7    5    7 1
     8    5    8 1
     9    5   12 1
    10    7   33 1
    11    8   34 1
    12    8   35 1
    13    9   10 2
    14    9   11 1
    15    9   12 1
    16    9   13 1
    17   13   14 1
    18   14   15 1
    19   14   36 1
    20   14   37 1
    21   15   16 1
    22   15   17 1
    23   15   38 1
    24   16   21 1
    25   17   18 1
    26   17   19 1
    27   17   39 1
    28   18   40 1
    29   19   20 1
    30   19   21 1
    31   19   41 1
    32   20   42 1
    33   21   22 1
    34   21   43 1
    35   22   23 ar
    36   22   31 ar
    37   23   24 ar
    38   23   44 1
    39   24   25 ar
    40   25   26 ar
    41   25   31 ar
    42   26   27 1
    43   26   28 ar
    44   27   45 1
    45   27   46 1
    46   28   29 ar
    47   29   30 ar
    48   29   47 1
    49   30   31 ar
@<TRIPOS>SUBSTRUCTURE
     1 ACP         1 GROUP 0 A     ****
@<TRIPOS>MOLECULE
[[[5-(6-aminopurin-9-yl)-3,4-dihydroxy-tetrahydrofuran-2-yl]methoxy-oxido-phosphoryl]oxy-hydroxy-phosphoryl]methyl-hydroxy-phosphinate
   47    49     1     0     0
SMALL
USER_CHARGES

@<TRIPOS>ATOM
      1 PG         -2.9739    6.0010   -3.1198 P.3       1 ACP         1.3516
      2 O1G        -4.0410    5.5271   -4.0789 O.co2     1 ACP        -0.8379
      3 O2G        -2.0575    7.1591   -3.4407 O.co2     1 ACP        -0.8379
      4 O3G        -3.6320    6.2242   -1.6443 O.3       1 ACP        -0.7980
      5 PB         -0.4906    4.6265   -1.6037 P.3       1 ACP         1.7688
      6 O1B         0.5881    5.5802   -2.0222 O.2       1 ACP        -0.9167
      7 O2B        -0.0200    3.0865   -1.4673 O.3       1 ACP        -0.8201
      8 C3B        -1.9078    4.5442   -2.7194 C.3       1 ACP        -0.6097
      9 PA         -0.5788    5.0303    1.3262 P.3       1 ACP         1.5979
     10 O1A        -1.7294    5.1711    2.2989 O.co2     1 ACP        -0.8617
     11 O2A         0.5650    6.0209    1.3331 O.co2     1 ACP        -0.8617
     12 O3A        -1.1922    4.9364   -0.1832 O.3       1 ACP        -0.8283
     13 O5'         0.0181    3.5132    1.4596 O.3       1 ACP        -0.5783
     14 C5'        -0.8811    2.4285    1.6206 C.3       1 ACP         0.1980
     15 C4'        -0.1994    1.3333    2.4288 C.3       1 ACP         0.0815
     16 O4'        -1.1285    0.2356    2.5840 O.3       1 ACP        -0.4127
     17 C3'         1.0324    0.7610    1.7344 C.3       1 ACP         0.0890
     18 O3'         1.9175    0.2377    2.7247 O.3       1 ACP        -0.6221
     19 C2'         0.4468   -0.3802    0.9263 C.3       1 ACP         0.1067
     20 O2'         1.3993   -1.3703    0.5961 O.3       1 ACP        -0.6053
     21 C1'        -0.6159   -0.9100    1.8769 C.3       1 ACP         0.4223
     22 N9         -1.7127   -1.6108    1.2130 N.pl3     1 ACP        -0.6834
     23 C8         -1.7712   -2.9546    0.9544 C.ar      1 ACP         0.5614
     24 N7         -2.8883   -3.2948    0.3462 N.2       1 ACP        -0.5751
     25 C5         -3.5834   -2.1202    0.2043 C.ar      1 ACP        -0.2117
     26 C6         -4.8225   -1.8251   -0.3554 C.ar      1 ACP         0.7177
     27 N6         -5.6154   -2.8395   -0.9189 N.pl3     1 ACP        -0.9401
     28 N1         -5.2589   -0.5425   -0.3507 N.ar      1 ACP        -0.8008
     29 C2         -4.4510    0.3913    0.2069 C.ar      1 ACP         0.6565
     30 N3         -3.2368    0.2296    0.7767 N.ar      1 ACP        -0.7061
     31 C4         -2.8684   -1.0596    0.7376 C.ar      1 ACP         0.5715
     32 HOG3       -4.3607    6.8743   -1.5506 H         1 ACP         0.4226
     33 HOB2        0.6902    2.8616   -0.8293 H         1 ACP         0.4482
     34 H3B1       -2.5840    3.7700   -2.3395 H         1 ACP         0.1012
     35 H3B2       -1.5321    4.1947   -3.6870 H         1 ACP         0.1012
     36 H5'1       -1.7769    2.7851    2.1387 H         1 ACP         0.0481
     37 H5'2       -1.1653    2.0543    0.6320 H         1 ACP         0.0481
     38 H4'         0.0403    1.7078    3.4343 H         1 ACP         0.0904
     39 H3'         1.5906    1.4859    1.1353 H         1 ACP         0.0809
     40 HO3'        2.6839   -0.1150    2.2479 H         1 ACP         0.4528
     41 H2'        -0.0017    0.0018    0.0005 H         1 ACP         0.0594
     42 HO2'        2.0953   -0.9375    0.0709 H         1 ACP         0.4344
     43 H1'        -0.1998   -1.6319    2.6178 H         1 ACP         0.1127
     44 H8         -0.9745   -3.6312    1.2318 H         1 ACP         0.1050
     45 HN61       -5.2619   -3.7766   -0.9586 H         1 ACP         0.4211
     46 HN62       -6.4834   -2.5990   -1.3590 H         1 ACP         0.4211
     47 H2         -4.8317    1.4071    0.1930 H         1 ACP         0.0375
@<TRIPOS>BOND
     1    1    2 2
     2    1    3 1
     3    1    4 1
     4    1    8 1
     5    4   32 1
     6    5    6 2
     7    5    7 1
     8    5    8 1
     9    5   12 1
    10    7   33 1
    11    8   34 1
    12    8   35 1
    13    9   10 2
    14    9   11 1
    15    9   12 1
    16    9   13 1
    17   13   14 1
    18   14   15 1
    19   14   36 1
    20   14   37 1
    21   15   16 1
    22   15   17 1
    23   15   38 1
    24   16   21 1
    25   17   18 1
    26   17   19 1
    27   17   39 1
    28   18   40 1
    29   19   20 1
    30   19   21 1
    31   19   41 1
    32   20   42 1
    33   21   22 1
    34   21   43 1
    35   22   23 ar
    36   22   31 ar
    37   23   24 ar
    38   23   44 1
    39   24   25 ar
    40   25   26 ar
    41   25   31 ar
    42   26   27 1
    43   26   28 ar
    44   27   45 1
    45   27   46 1
    46   28   29 ar
    47   29   30 ar
    48   29   47 1
    49   30   31 ar
@<TRIPOS>SUBSTRUCTURE
     1 ACP         1 GROUP 0 A     ****
@<TRIPOS>MOLECULE
[[[5-(6-aminopurin-9-yl)-3,4-dihydroxy-tetrahydrofuran-2-yl]methoxy-oxido-phosphoryl]oxy-hydroxy-phosphoryl]methyl-hydroxy-phosphinate
   47    49     1     0     0
SMALL
USER_CHARGES

@<TRIPOS>ATOM
      1 PG         -4.9005    5.7364    1.5528 P.3       1 ACP         1.3516
      2 O1G        -5.8627    6.2792    0.5219 O.co2     1 ACP        -0.8379
      3 O2G        -5.3390    5.3718    2.9523 O.co2     1 ACP        -0.8379
      4 O3G        -4.0591    4.4966    0.9088 O.3       1 ACP        -0.7980
      5 PB         -2.1157    6.7274    2.8244 P.3       1 ACP         1.7688
      6 O1B        -2.4789    6.6260    4.2756 O.2       1 ACP        -0.9167
      7 O2B        -1.1294    7.9532    2.4553 O.3       1 ACP        -0.8201
      8 C3B        -3.5140    6.9504    1.7043 C.3       1 ACP        -0.6097
      9 PA          0.0332    4.7085    2.5761 P.3       1 ACP         1.5979
     10 O1A        -0.1161    4.0779    3.9435 O.co2     1 ACP        -0.8617
     11 O2A         1.1770    5.6544    2.2817 O.co2     1 ACP        -0.8617
     12 O3A        -1.3743    5.4401    2.1925 O.3       1 ACP        -0.8283
     13 O5'         0.0181    3.5132    1.4596 O.3       1 ACP        -0.5783
     14 C5'        -0.8811    2.4285    1.6206 C.3       1 ACP         0.1980
     15 C4'        -0.1994    1.3333    2.4288 C.3       1 ACP         0.0815
     16 O4'        -1.1285    0.2356    2.5840 O.3       1 ACP        -0.4127
     17 C3'         1.0324    0.7610    1.7344 C.3       1 ACP         0.0890
     18 O3'         1.9175    0.2377    2.7247 O.3       1 ACP        -0.6221
     19 C2'         0.4468   -0.3802    0.9263 C.3       1 ACP         0.1067
     20 O2'         1.3993   -1.3703    0.5961 O.3       1 ACP        -0.6053
     21 C1'        -0.6159   -0.9100    1.8769 C.3       1 ACP         0.4223
     22 N9         -1.7127   -1.6108    1.2130 N.pl3     1 ACP        -0.6834
     23 C8         -1.7712   -2.9546    0.9544 C.ar      1 ACP         0.5614
     24 N7         -2.8883   -3.2948    0.3462 N.2       1 ACP        -0.5751
     25 C5         -3.5834   -2.1202    0.2043 C.ar      1 ACP        -0.2117
     26 C6         -4.8225   -1.8251   -0.3554 C.ar      1 ACP         0.7177
     27 N6         -5.6154   -2.8395   -0.9189 N.pl3     1 ACP        -0.9401
     28 N1         -5.2589   -0.5425   -0.3507 N.ar      1 ACP        -0.8008
     29 C2         -4.4510    0.3913    0.2069 C.ar      1 ACP         0.6565
     30 N3         -3.2368    0.2296    0.7767 N.ar      1 ACP        -0.7061
     31 C4         -2.8684   -1.0596    0.7376 C.ar      1 ACP         0.5715
     32 HOG3       -4.5534    3.7120    0.5889 H         1 ACP         0.4226
     33 HOB2       -0.2442    7.9938    2.8758 H         1 ACP         0.4482
     34 H3B1       -3.1114    7.0773    0.6930 H         1 ACP         0.1012
     35 H3B2       -3.9948    7.8955    1.9785 H         1 ACP         0.1012
     36 H5'1       -1.7769    2.7851    2.1387 H         1 ACP         0.0481
     37 H5'2       -1.1653    2.0543    0.6320 H         1 ACP         0.0481
     38 H4'         0.0403    1.7078    3.4343 H         1 ACP         0.0904
     39 H3'         1.5906    1.4859    1.1353 H         1 ACP         0.0809
     40 HO3'        2.6839   -0.1150    2.2479 H         1 ACP         0.4528
     41 H2'        -0.0017    0.0018    0.0005 H         1 ACP         0.0594
     42 HO2'        2.0953   -0.9375    0.0709 H         1 ACP         0.4344
     43 H1'        -0.1998   -1.6319    2.6178 H         1 ACP         0.1127
     44 H8         -0.9745   -3.6312    1.2318 H         1 ACP         0.1050
     45 HN61       -5.2619   -3.7766   -0.9586 H         1 ACP         0.4211
     46 HN62       -6.4834   -2.5990   -1.3590 H         1 ACP         0.4211
     47 H2         -4.8317    1.4071    0.1930 H         1 ACP         0.0375
@<TRIPOS>BOND
     1    1    2 2
     2    1    3 1
     3    1    4 1
     4    1    8 1
     5    4   32 1
     6    5    6 2
     7    5    7 1
     8    5    8 1
     9    5   12 1
    10    7   33 1
    11    8   34 1
    12    8   35 1
    13    9   10 2
    14    9   11 1
    15    9   12 1
    16    9   13 1
    17   13   14 1
    18   14   15 1
    19   14   36 1
    20   14   37 1
    21   15   16 1
    22   15   17 1
    23   15   38 1
    24   16   21 1
    25   17   18 1
    26   17   19 1
    27   17   39 1
    28   18   40 1
    29   19   20 1
    30   19   21 1
    31   19   41 1
    32   20   42 1
    33   21   22 1
    34   21   43 1
    35   22   23 ar
    36   22   31 ar
    37   23   24 ar
    38   23   44 1
    39   24   25 ar
    40   25   26 ar
    41   25   31 ar
    42   26   27 1
    43   26   28 ar
    44   27   45 1
    45   27   46 1
    46   28   29 ar
    47   29   30 ar
    48   29   47 1
    49   30   31 ar
@<TRIPOS>SUBSTRUCTURE
     1 ACP         1 GROUP 0 A     ****
@<TRIPOS>MOLECULE
[[[5-(6-aminopurin-9-yl)-3,4-dihydroxy-tetrahydrofuran-2-yl]methoxy-oxido-phosphoryl]oxy-hydroxy-phosphoryl]methyl-hydroxy-phosphinate
   47    49     1     0     0
SMALL
USER_CHARGES

@<TRIPOS>ATOM
      1 PG         -1.9023    4.7205   -2.2359 P.3       1 ACP         1.3516
      2 O1G        -2.9167    4.6836   -3.3553 O.co2     1 ACP        -0.8379
      3 O2G        -1.6644    3.5394   -1.3237 O.co2     1 ACP        -0.8379
      4 O3G        -0.4740    5.2524   -2.8165 O.3       1 ACP        -0.7980
      5 PB         -1.3710    6.6225    0.3046 P.3       1 ACP         1.7688
      6 O1B        -1.8723    7.8356    1.0294 O.2       1 ACP        -0.9167
      7 O2B         0.1492    6.7325   -0.2327 O.3       1 ACP        -0.8201
      8 C3B        -2.3142    6.1725   -1.1677 C.3       1 ACP        -0.6097
      9 PA         -2.5929    4.4189    1.8558 P.3       1 ACP         1.5979
     10 O1A        -3.4944    3.8755    0.7687 O.co2     1 ACP        -0.8617
     11 O2A        -3.1598    5.2480    2.9876 O.co2     1 ACP        -0.8617
     12 O3A        -1.3771    5.2459    1.1477 O.3       1 ACP        -0.8283
     13 O5'        -1.7337    3.1724    2.4753 O.3       1 ACP        -0.5783
     14 C5'        -0.8811    2.4285    1.6206 C.3       1 ACP         0.1980
     15 C4'        -0.1994    1.3333    2.4288 C.3       1 ACP         0.0815
     16 O4'        -1.1285    0.2356    2.5840 O.3       1 ACP        -0.4127
     17 C3'         1.0324    0.7610    1.7344 C.3       1 ACP         0.0890
     18 O3'         1.9175    0.2377    2.7247 O.3       1 ACP        -0.6221
     19 C2'         0.4468   -0.3802    0.9263 C.3       1 ACP         0.1067
     20 O2'         1.3993   -1.3703    0.5961 O.3       1 ACP        -0.6053
     21 C1'        -0.6159   -0.9100    1.8769 C.3       1 ACP         0.4223
     22 N9         -1.7127   -1.6108    1.2130 N.pl3     1 ACP        -0.6834
     23 C8         -2.8641   -1.0399    0.7392 C.ar      1 ACP         0.5614
     24 N7         -3.6659   -1.9257    0.1858 N.2       1 ACP        -0.5751
     25 C5         -3.0053   -3.1223    0.3069 C.ar      1 ACP        -0.2117
     26 C6         -3.3321   -4.4178   -0.0813 C.ar      1 ACP         0.7177
     27 N6         -4.5476   -4.6866   -0.7335 N.pl3     1 ACP        -0.9401
     28 N1         -2.4608   -5.4225    0.1773 N.ar      1 ACP        -0.8008
     29 C2         -1.3053   -5.1020    0.8081 C.ar      1 ACP         0.6565
     30 N3         -0.8788   -3.8921    1.2315 N.ar      1 ACP        -0.7061
     31 C4         -1.7870   -2.9477    0.9438 C.ar      1 ACP         0.5715
     32 HOG3       -0.0401    4.7406   -3.5320 H         1 ACP         0.4226
     33 HOB2        0.8720    6.8795    0.4139 H         1 ACP         0.4482
     34 H3B1       -2.3258    7.0435   -1.8328 H         1 ACP         0.1012
     35 H3B2       -3.3469    6.0020   -0.8452 H         1 ACP         0.1012
     36 H5'1       -1.4802    1.9928    0.8147 H         1 ACP         0.0481
     37 H5'2       -0.1369    3.1042    1.1873 H         1 ACP         0.0481
     38 H4'         0.0403    1.7078    3.4343 H         1 ACP         0.0904
     39 H3'         1.5906    1.4859    1.1353 H         1 ACP         0.0809
     40 HO3'        2.1521    0.9800    3.3017 H         1 ACP         0.4528
     41 H2'        -0.0017    0.0018    0.0005 H         1 ACP         0.0594
     42 HO2'        2.0953   -0.9375    0.0709 H         1 ACP         0.4344
     43 H1'        -0.1998   -1.6319    2.6178 H         1 ACP         0.1127
     44 H8         -3.0609    0.0200    0.8250 H         1 ACP         0.1050
     45 HN61       -5.2046   -3.9433   -0.8775 H         1 ACP         0.4211
     46 HN62       -4.7849   -5.6332   -0.9625 H         1 ACP         0.4211
     47 H2         -0.6318   -5.9307    0.9993 H         1 ACP         0.0375
@<TRIPOS>BOND
     1    1    2 2
     2    1    3 1
     3    1    4 1
     4    1    8 1
     5    4   32 1
     6    5    6 2
     7    5    7 1
     8    5    8 1
     9    5   12 1
    10    7   33 1
    11    8   34 1
    12    8   35 1
    13    9   10 2
    14    9   11 1
    15    9   12 1
    16    9   13 1
    17   13   14 1
    18   14   15 1
    19   14   36 1
    20   14   37 1
    21   15   16 1
    22   15   17 1
    23   15   38 1
    24   16   21 1
    25   17   18 1
    26   17   19 1
    27   17   39 1
    28   18   40 1
    29   19   20 1
    30   19   21 1
    31   19   41 1
    32   20   42 1
    33   21   22 1
    34   21   43 1
    35   22   23 ar
    36   22   31 ar
    37   23   24 ar
    38   23   44 1
    39   24   25 ar
    40   25   26 ar
    41   25   31 ar
    42   26   27 1
    43   26   28 ar
    44   27   45 1
    45   27   46 1
    46   28   29 ar
    47   29   30 ar
    48   29   47 1
    49   30   31 ar
@<TRIPOS>SUBSTRUCTURE
     1 ACP         1 GROUP 0 A     ****
@<TRIPOS>MOLECULE
[[[5-(6-aminopurin-9-yl)-3,4-dihydroxy-tetrahydrofuran-2-yl]methoxy-oxido-phosphoryl]oxy-hydroxy-phosphoryl]methyl-hydroxy-phosphinate
   47    49     1     0     0
SMALL
USER_CHARGES

@<TRIPOS>ATOM
      1 PG          3.6042   -1.5475   -2.2517 P.3       1 ACP         1.3516
      2 O1G         2.9068   -0.5108   -1.4018 O.co2     1 ACP        -0.8379
      3 O2G         5.0035   -1.3446   -2.7851 O.co2     1 ACP        -0.8379
      4 O3G         3.5098   -3.0014   -1.5188 O.3       1 ACP        -0.7980
      5 PB          1.9964   -0.6502   -4.8905 P.3       1 ACP         1.7688
      6 O1B         1.1038   -1.1486   -5.9874 O.2       1 ACP        -0.9167
      7 O2B         3.3921   -0.0069   -5.3904 O.3       1 ACP        -0.8201
      8 C3B         2.5061   -1.9043   -3.6959 C.3       1 ACP        -0.6097
      9 PA          0.8118    1.9900   -4.2728 P.3       1 ACP         1.5979
     10 O1A        -0.4443    1.8534   -5.1054 O.co2     1 ACP        -0.8617
     11 O2A         1.9624    2.8520   -4.7450 O.co2     1 ACP        -0.8617
     12 O3A         1.3706    0.4935   -3.9385 O.3       1 ACP        -0.8283
     13 O5'         0.3757    2.4481   -2.7643 O.3       1 ACP        -0.5783
     14 C5'        -0.7794    1.8744   -2.1748 C.3       1 ACP         0.1980
     15 C4'        -0.9699    2.4597   -0.7819 C.3       1 ACP         0.0815
     16 O4'        -2.1475    1.8640   -0.2014 O.3       1 ACP        -0.4127
     17 C3'         0.1697    2.1347    0.1695 C.3       1 ACP         0.0890
     18 O3'         0.1809    3.0982    1.2223 O.3       1 ACP        -0.6221
     19 C2'        -0.2543    0.7880    0.7187 C.3       1 ACP         0.1067
     20 O2'         0.3606    0.4944    1.9582 O.3       1 ACP        -0.6053
     21 C1'        -1.7682    0.9516    0.8548 C.3       1 ACP         0.4223
     22 N9         -2.5926   -0.2553    0.7436 N.pl3     1 ACP        -0.6834
     23 C8         -3.5599   -0.4866   -0.1983 C.ar      1 ACP         0.5614
     24 N7         -4.1294   -1.6639   -0.0461 N.2       1 ACP        -0.5751
     25 C5         -3.5041   -2.2191    1.0420 C.ar      1 ACP        -0.2117
     26 C6         -3.6605   -3.4390    1.6925 C.ar      1 ACP         0.7177
     27 N6         -4.6108   -4.3735    1.2468 N.pl3     1 ACP        -0.9401
     28 N1         -2.8820   -3.7179    2.7657 N.ar      1 ACP        -0.8008
     29 C2         -1.9837   -2.7784    3.1481 C.ar      1 ACP         0.6565
     30 N3         -1.7408   -1.5668    2.6022 N.ar      1 ACP        -0.7061
     31 C4         -2.5438   -1.3578    1.5483 C.ar      1 ACP         0.5715
     32 HOG3        3.9040   -3.1018   -0.6261 H         1 ACP         0.4226
     33 HOB2        3.3698    0.7723   -5.9857 H         1 ACP         0.4482
     34 H3B1        2.9918   -2.7139   -4.2523 H         1 ACP         0.1012
     35 H3B2        1.5914   -2.3196   -3.2595 H         1 ACP         0.1012
     36 H5'1       -1.6463    2.0967   -2.8051 H         1 ACP         0.0481
     37 H5'2       -0.6469    0.7893   -2.1194 H         1 ACP         0.0481
     38 H4'        -1.1469    3.5409   -0.8522 H         1 ACP         0.0904
     39 H3'         1.1601    2.1310   -0.2934 H         1 ACP         0.0809
     40 HO3'        0.3098    3.9616    0.8017 H         1 ACP         0.4528
     41 H2'        -0.0024   -0.0091    0.0062 H         1 ACP         0.0594
     42 HO2'        1.3225    0.4909    1.8095 H         1 ACP         0.4344
     43 H1'        -2.0584    1.4255    1.8301 H         1 ACP         0.1127
     44 H8         -3.8030    0.2355   -0.9657 H         1 ACP         0.1050
     45 HN61       -5.2130   -4.1372    0.4810 H         1 ACP         0.4211
     46 HN62       -4.7404   -5.2263    1.7576 H         1 ACP         0.4211
     47 H2         -1.3778   -3.0348    4.0107 H         1 ACP         0.0375
@<TRIPOS>BOND
     1    1    2 2
     2    1    3 1
     3    1    4 1
     4    1    8 1
     5    4   32 1
     6    5    6 2
     7    5    7 1
     8    5    8 1
     9    5   12 1
    10    7   33 1
    11    8   34 1
    12    8   35 1
    13    9   10 2
    14    9   11 1
    15    9   12 1
    16    9   13 1
    17   13   14 1
    18   14   15 1
    19   14   36 1
    20   14   37 1
    21   15   16 1
    22   15   17 1
    23   15   38 1
    24   16   21 1
    25   17   18 1
    26   17   19 1
    27   17   39 1
    28   18   40 1
    29   19   20 1
    30   19   21 1
    31   19   41 1
    32   20   42 1
    33   21   22 1
    34   21   43 1
    35   22   23 ar
    36   22   31 ar
    37   23   24 ar
    38   23   44 1
    39   24   25 ar
    40   25   26 ar
    41   25   31 ar
    42   26   27 1
    43   26   28 ar
    44   27   45 1
    45   27   46 1
    46   28   29 ar
    47   29   30 ar
    48   29   47 1
    49   30   31 ar
@<TRIPOS>SUBSTRUCTURE
     1 ACP         1 GROUP 0 A     ****
@<TRIPOS>MOLECULE
[[[5-(6-aminopurin-9-yl)-3,4-dihydroxy-tetrahydrofuran-2-yl]methoxy-oxido-phosphoryl]oxy-hydroxy-phosphoryl]methyl-hydroxy-phosphinate
   47    49     1     0     0
SMALL
USER_CHARGES

@<TRIPOS>ATOM
      1 PG          0.6128   -2.1874   -5.0671 P.3       1 ACP         1.3516
      2 O1G         0.4770   -2.7801   -3.6838 O.co2     1 ACP        -0.8379
      3 O2G         1.5122   -1.0074   -5.3543 O.co2     1 ACP        -0.8379
      4 O3G         0.9225   -3.3774   -6.1385 O.3       1 ACP        -0.7980
      5 PB         -2.1538   -0.5690   -4.7833 P.3       1 ACP         1.7688
      6 O1B        -2.4918   -0.9413   -3.3707 O.2       1 ACP        -0.9167
      7 O2B        -3.4262   -0.4138   -5.7675 O.3       1 ACP        -0.8201
      8 C3B        -1.0866   -1.7433   -5.6447 C.3       1 ACP        -0.6097
      9 PA         -1.7483    2.3548   -4.5785 P.3       1 ACP         1.5979
     10 O1A        -3.1086    2.6629   -5.1655 O.co2     1 ACP        -0.8617
     11 O2A        -0.5643    3.2549   -4.8571 O.co2     1 ACP        -0.8617
     12 O3A        -1.3551    0.8209   -4.9733 O.3       1 ACP        -0.8283
     13 O5'        -1.9207    2.1716   -2.9622 O.3       1 ACP        -0.5783
     14 C5'        -0.7794    1.8744   -2.1748 C.3       1 ACP         0.1980
     15 C4'        -0.9699    2.4597   -0.7819 C.3       1 ACP         0.0815
     16 O4'        -2.1475    1.8640   -0.2014 O.3       1 ACP        -0.4127
     17 C3'         0.1697    2.1347    0.1695 C.3       1 ACP         0.0890
     18 O3'         0.1809    3.0982    1.2223 O.3       1 ACP        -0.6221
     19 C2'        -0.2543    0.7880    0.7187 C.3       1 ACP         0.1067
     20 O2'         0.3606    0.4944    1.9582 O.3       1 ACP        -0.6053
     21 C1'        -1.7682    0.9516    0.8548 C.3       1 ACP         0.4223
     22 N9         -2.5926   -0.2553    0.7436 N.pl3     1 ACP        -0.6834
     23 C8         -3.5599   -0.4866   -0.1983 C.ar      1 ACP         0.5614
     24 N7         -4.1294   -1.6639   -0.0461 N.2       1 ACP        -0.5751
     25 C5         -3.5041   -2.2191    1.0420 C.ar      1 ACP        -0.2117
     26 C6         -3.6605   -3.4390    1.6925 C.ar      1 ACP         0.7177
     27 N6         -4.6108   -4.3735    1.2468 N.pl3     1 ACP        -0.9401
     28 N1         -2.8820   -3.7179    2.7657 N.ar      1 ACP        -0.8008
     29 C2         -1.9837   -2.7784    3.1481 C.ar      1 ACP         0.6565
     30 N3         -1.7408   -1.5668    2.6022 N.ar      1 ACP        -0.7061
     31 C4         -2.5438   -1.3578    1.5483 C.ar      1 ACP         0.5715
     32 HOG3        1.7320   -3.9180   -6.0162 H         1 ACP         0.4226
     33 HOB2       -4.1129    0.2534   -5.5545 H         1 ACP         0.4482
     34 H3B1       -0.9732   -1.3926   -6.6767 H         1 ACP         0.1012
     35 H3B2       -1.6280   -2.6944   -5.6874 H         1 ACP         0.1012
     36 H5'1       -0.6601    0.7877   -2.1202 H         1 ACP         0.0481
     37 H5'2        0.1042    2.3072   -2.6544 H         1 ACP         0.0481
     38 H4'        -1.1469    3.5409   -0.8522 H         1 ACP         0.0904
     39 H3'         1.1601    2.1310   -0.2934 H         1 ACP         0.0809
     40 HO3'        0.9173    2.8584    1.8048 H         1 ACP         0.4528
     41 H2'        -0.0024   -0.0091    0.0062 H         1 ACP         0.0594
     42 HO2'        1.3225    0.4909    1.8095 H         1 ACP         0.4344
     43 H1'        -2.0584    1.4255    1.8301 H         1 ACP         0.1127
     44 H8         -3.8030    0.2355   -0.9657 H         1 ACP         0.1050
     45 HN61       -5.2130   -4.1372    0.4810 H         1 ACP         0.4211
     46 HN62       -4.7404   -5.2263    1.7576 H         1 ACP         0.4211
     47 H2         -1.3778   -3.0348    4.0107 H         1 ACP         0.0375
@<TRIPOS>BOND
     1    1    2 2
     2    1    3 1
     3    1    4 1
     4    1    8 1
     5    4   32 1
     6    5    6 2
     7    5    7 1
     8    5    8 1
     9    5   12 1
    10    7   33 1
    11    8   34 1
    12    8   35 1
    13    9   10 2
    14    9   11 1
    15    9   12 1
    16    9   13 1
    17   13   14 1
    18   14   15 1
    19   14   36 1
    20   14   37 1
    21   15   16 1
    22   15   17 1
    23   15   38 1
    24   16   21 1
    25   17   18 1
    26   17   19 1
    27   17   39 1
    28   18   40 1
    29   19   20 1
    30   19   21 1
    31   19   41 1
    32   20   42 1
    33   21   22 1
    34   21   43 1
    35   22   23 ar
    36   22   31 ar
    37   23   24 ar
    38   23   44 1
    39   24   25 ar
    40   25   26 ar
    41   25   31 ar
    42   26   27 1
    43   26   28 ar
    44   27   45 1
    45   27   46 1
    46   28   29 ar
    47   29   30 ar
    48   29   47 1
    49   30   31 ar
@<TRIPOS>SUBSTRUCTURE
     1 ACP         1 GROUP 0 A     ****
@<TRIPOS>MOLECULE
[[[5-(6-aminopurin-9-yl)-3,4-dihydroxy-tetrahydrofuran-2-yl]methoxy-oxido-phosphoryl]oxy-hydroxy-phosphoryl]methyl-hydroxy-phosphinate
   47    49     1     0     0
SMALL
USER_CHARGES

@<TRIPOS>ATOM
      1 PG          0.2168    8.5443    0.6179 P.3       1 ACP         1.3516
      2 O1G        -0.8753    8.0721   -0.3136 O.co2     1 ACP        -0.8379
      3 O2G         1.4643    9.2329    0.1147 O.co2     1 ACP        -0.8379
      4 O3G        -0.4415    9.4276    1.8206 O.3       1 ACP        -0.7980
      5 PB         -0.3564    6.1613    2.7028 P.3       1 ACP         1.7688
      6 O1B        -0.9813    6.9661    3.8027 O.2       1 ACP        -0.9167
      7 O2B         0.5439    4.9150    3.2007 O.3       1 ACP        -0.8201
      8 C3B         0.7537    7.0861    1.6201 C.3       1 ACP        -0.6097
      9 PA         -2.5929    4.4189    1.8558 P.3       1 ACP         1.5979
     10 O1A        -3.1012    4.0084    0.4909 O.co2     1 ACP        -0.8617
     11 O2A        -3.5438    4.9443    2.9091 O.co2     1 ACP        -0.8617
     12 O3A        -1.3812    5.4927    1.6499 O.3       1 ACP        -0.8283
     13 O5'        -1.7337    3.1724    2.4753 O.3       1 ACP        -0.5783
     14 C5'        -0.8811    2.4285    1.6206 C.3       1 ACP         0.1980
     15 C4'        -0.1994    1.3333    2.4288 C.3       1 ACP         0.0815
     16 O4'        -1.1285    0.2356    2.5840 O.3       1 ACP        -0.4127
     17 C3'         1.0324    0.7610    1.7344 C.3       1 ACP         0.0890
     18 O3'         1.9175    0.2377    2.7247 O.3       1 ACP        -0.6221
     19 C2'         0.4468   -0.3802    0.9263 C.3       1 ACP         0.1067
     20 O2'         1.3993   -1.3703    0.5961 O.3       1 ACP        -0.6053
     21 C1'        -0.6159   -0.9100    1.8769 C.3       1 ACP         0.4223
     22 N9         -1.7127   -1.6108    1.2130 N.pl3     1 ACP        -0.6834
     23 C8         -2.0877   -2.9101    1.4304 C.ar      1 ACP         0.5614
     24 N7         -3.1152   -3.2613    0.6857 N.2       1 ACP        -0.5751
     25 C5         -3.4186   -2.1409   -0.0462 C.ar      1 ACP        -0.2117
     26 C6         -4.3953   -1.8809   -1.0023 C.ar      1 ACP         0.7177
     27 N6         -5.3118   -2.8767   -1.3812 N.pl3     1 ACP        -0.9401
     28 N1         -4.4538   -0.6507   -1.5667 N.ar      1 ACP        -0.8008
     29 C2         -3.5442    0.2679   -1.1609 C.ar      1 ACP         0.6565
     30 N3         -2.5561    0.1361   -0.2491 N.ar      1 ACP        -0.7061
     31 C4         -2.5568   -1.1019    0.2674 C.ar      1 ACP         0.5715
     32 HOG3       -0.9400   10.2392    1.5860 H         1 ACP         0.4226
     33 HOB2        0.1233    4.2094    3.7367 H         1 ACP         0.4482
     34 H3B1        1.1916    6.3757    0.9097 H         1 ACP         0.1012
     35 H3B2        1.5718    7.4590    2.2455 H         1 ACP         0.1012
     36 H5'1       -1.4802    1.9928    0.8147 H         1 ACP         0.0481
     37 H5'2       -0.1369    3.1042    1.1873 H         1 ACP         0.0481
     38 H4'         0.0403    1.7078    3.4343 H         1 ACP         0.0904
     39 H3'         1.5906    1.4859    1.1353 H         1 ACP         0.0809
     40 HO3'        2.1521    0.9800    3.3017 H         1 ACP         0.4528
     41 H2'        -0.0017    0.0018    0.0005 H         1 ACP         0.0594
     42 HO2'        0.9369   -2.0558    0.0825 H         1 ACP         0.4344
     43 H1'        -0.1998   -1.6319    2.6178 H         1 ACP         0.1127
     44 H8         -1.5778   -3.5473    2.1399 H         1 ACP         0.1050
     45 HN61       -5.2294   -3.7965   -0.9914 H         1 ACP         0.4211
     46 HN62       -5.9774   -2.6837   -2.1055 H         1 ACP         0.4211
     47 H2         -3.6201    1.2414   -1.6336 H         1 ACP         0.0375
@<TRIPOS>BOND
     1    1    2 2
     2    1    3 1
     3    1    4 1
     4    1    8 1
     5    4   32 1
     6    5    6 2
     7    5    7 1
     8    5    8 1
     9    5   12 1
    10    7   33 1
    11    8   34 1
    12    8   35 1
    13    9   10 2
    14    9   11 1
    15    9   12 1
    16    9   13 1
    17   13   14 1
    18   14   15 1
    19   14   36 1
    20   14   37 1
    21   15   16 1
    22   15   17 1
    23   15   38 1
    24   16   21 1
    25   17   18 1
    26   17   19 1
    27   17   39 1
    28   18   40 1
    29   19   20 1
    30   19   21 1
    31   19   41 1
    32   20   42 1
    33   21   22 1
    34   21   43 1
    35   22   23 ar
    36   22   31 ar
    37   23   24 ar
    38   23   44 1
    39   24   25 ar
    40   25   26 ar
    41   25   31 ar
    42   26   27 1
    43   26   28 ar
    44   27   45 1
    45   27   46 1
    46   28   29 ar
    47   29   30 ar
    48   29   47 1
    49   30   31 ar
@<TRIPOS>SUBSTRUCTURE
     1 ACP         1 GROUP 0 A     ****
@<TRIPOS>MOLECULE
[[[5-(6-aminopurin-9-yl)-3,4-dihydroxy-tetrahydrofuran-2-yl]methoxy-oxido-phosphoryl]oxy-hydroxy-phosphoryl]methyl-hydroxy-phosphinate
   47    49     1     0     0
SMALL
USER_CHARGES

@<TRIPOS>ATOM
      1 PG          1.2738    1.5374   -3.9083 P.3       1 ACP         1.3516
      2 O1G         0.9381    1.1965   -5.3417 O.co2     1 ACP        -0.8379
      3 O2G         0.6885    0.7780   -2.7402 O.co2     1 ACP        -0.8379
      4 O3G         2.8933    1.6282   -3.7381 O.3       1 ACP        -0.7980
      5 PB          1.1170    4.1900   -2.0936 P.3       1 ACP         1.7688
      6 O1B         0.7336    5.6395   -2.1060 O.2       1 ACP        -0.9167
      7 O2B         2.6643    3.9001   -1.7278 O.3       1 ACP        -0.8201
      8 C3B         0.8783    3.3267   -3.6612 C.3       1 ACP        -0.6097
      9 PA         -1.2907    2.9171   -0.9369 P.3       1 ACP         1.5979
     10 O1A        -1.7019    2.1112   -2.1499 O.co2     1 ACP        -0.8617
     11 O2A        -2.0345    4.1794   -0.5589 O.co2     1 ACP        -0.8617
     12 O3A         0.3012    3.2547   -1.0613 O.3       1 ACP        -0.8283
     13 O5'        -1.2434    1.9102    0.3513 O.3       1 ACP        -0.5783
     14 C5'        -0.8811    2.4285    1.6206 C.3       1 ACP         0.1980
     15 C4'        -0.1994    1.3333    2.4288 C.3       1 ACP         0.0815
     16 O4'        -1.1285    0.2356    2.5840 O.3       1 ACP        -0.4127
     17 C3'         1.0324    0.7610    1.7344 C.3       1 ACP         0.0890
     18 O3'         1.9175    0.2377    2.7247 O.3       1 ACP        -0.6221
     19 C2'         0.4468   -0.3802    0.9263 C.3       1 ACP         0.1067
     20 O2'         1.3993   -1.3703    0.5961 O.3       1 ACP        -0.6053
     21 C1'        -0.6159   -0.9100    1.8769 C.3       1 ACP         0.4223
     22 N9         -1.7127   -1.6108    1.2130 N.pl3     1 ACP        -0.6834
     23 C8         -2.8641   -1.0399    0.7392 C.ar      1 ACP         0.5614
     24 N7         -3.6659   -1.9257    0.1858 N.2       1 ACP        -0.5751
     25 C5         -3.0053   -3.1223    0.3069 C.ar      1 ACP        -0.2117
     26 C6         -3.3321   -4.4178   -0.0813 C.ar      1 ACP         0.7177
     27 N6         -4.5476   -4.6866   -0.7335 N.pl3     1 ACP        -0.9401
     28 N1         -2.4608   -5.4225    0.1773 N.ar      1 ACP        -0.8008
     29 C2         -1.3053   -5.1020    0.8081 C.ar      1 ACP         0.6565
     30 N3         -0.8788   -3.8921    1.2315 N.ar      1 ACP        -0.7061
     31 C4         -1.7870   -2.9477    0.9438 C.ar      1 ACP         0.5715
     32 HOG3        3.4302    0.8322   -3.9394 H         1 ACP         0.4226
     33 HOB2        3.0103    4.1954   -0.8589 H         1 ACP         0.4482
     34 H3B1        1.4427    3.8697   -4.4278 H         1 ACP         0.1012
     35 H3B2       -0.1822    3.4197   -3.9183 H         1 ACP         0.1012
     36 H5'1       -0.2034    3.2760    1.4766 H         1 ACP         0.0481
     37 H5'2       -1.7842    2.7761    2.1321 H         1 ACP         0.0481
     38 H4'         0.0403    1.7078    3.4343 H         1 ACP         0.0904
     39 H3'         1.5906    1.4859    1.1353 H         1 ACP         0.0809
     40 HO3'        2.6839   -0.1150    2.2479 H         1 ACP         0.4528
     41 H2'        -0.0017    0.0018    0.0005 H         1 ACP         0.0594
     42 HO2'        2.0953   -0.9375    0.0709 H         1 ACP         0.4344
     43 H1'        -0.1998   -1.6319    2.6178 H         1 ACP         0.1127
     44 H8         -3.0609    0.0200    0.8250 H         1 ACP         0.1050
     45 HN61       -5.2046   -3.9433   -0.8775 H         1 ACP         0.4211
     46 HN62       -4.7849   -5.6332   -0.9625 H         1 ACP         0.4211
     47 H2         -0.6318   -5.9307    0.9993 H         1 ACP         0.0375
@<TRIPOS>BOND
     1    1    2 2
     2    1    3 1
     3    1    4 1
     4    1    8 1
     5    4   32 1
     6    5    6 2
     7    5    7 1
     8    5    8 1
     9    5   12 1
    10    7   33 1
    11    8   34 1
    12    8   35 1
    13    9   10 2
    14    9   11 1
    15    9   12 1
    16    9   13 1
    17   13   14 1
    18   14   15 1
    19   14   36 1
    20   14   37 1
    21   15   16 1
    22   15   17 1
    23   15   38 1
    24   16   21 1
    25   17   18 1
    26   17   19 1
    27   17   39 1
    28   18   40 1
    29   19   20 1
    30   19   21 1
    31   19   41 1
    32   20   42 1
    33   21   22 1
    34   21   43 1
    35   22   23 ar
    36   22   31 ar
    37   23   24 ar
    38   23   44 1
    39   24   25 ar
    40   25   26 ar
    41   25   31 ar
    42   26   27 1
    43   26   28 ar
    44   27   45 1
    45   27   46 1
    46   28   29 ar
    47   29   30 ar
    48   29   47 1
    49   30   31 ar
@<TRIPOS>SUBSTRUCTURE
     1 ACP         1 GROUP 0 A     ****
@<TRIPOS>MOLECULE
[[[5-(6-aminopurin-9-yl)-3,4-dihydroxy-tetrahydrofuran-2-yl]methoxy-oxido-phosphoryl]oxy-hydroxy-phosphoryl]methyl-hydroxy-phosphinate
   47    49     1     0     0
SMALL
USER_CHARGES

@<TRIPOS>ATOM
      1 PG          1.6540    6.4884   -0.3523 P.3       1 ACP         1.3516
      2 O1G         0.3527    6.6582    0.3968 O.co2     1 ACP        -0.8379
      3 O2G         2.4515    7.6670   -0.8610 O.co2     1 ACP        -0.8379
      4 O3G         2.6357    5.4918    0.4861 O.3       1 ACP        -0.7980
      5 PB          0.7010    3.6929   -1.6294 P.3       1 ACP         1.7688
      6 O1B         1.5866    2.7708   -0.8460 O.2       1 ACP        -0.9167
      7 O2B         0.4233    3.2349   -3.1541 O.3       1 ACP        -0.8201
      8 C3B         1.3181    5.3815   -1.7949 C.3       1 ACP        -0.6097
      9 PA         -1.9977    2.8866   -0.7226 P.3       1 ACP         1.5979
     10 O1A        -2.2657    2.0869   -1.9790 O.co2     1 ACP        -0.8617
     11 O2A        -3.1169    3.6285   -0.0250 O.co2     1 ACP        -0.8617
     12 O3A        -0.7786    3.9277   -1.0279 O.3       1 ACP        -0.8283
     13 O5'        -1.2434    1.9102    0.3513 O.3       1 ACP        -0.5783
     14 C5'        -0.8811    2.4285    1.6206 C.3       1 ACP         0.1980
     15 C4'        -0.1994    1.3333    2.4288 C.3       1 ACP         0.0815
     16 O4'        -1.1285    0.2356    2.5840 O.3       1 ACP        -0.4127
     17 C3'         1.0324    0.7610    1.7344 C.3       1 ACP         0.0890
     18 O3'         1.9175    0.2377    2.7247 O.3       1 ACP        -0.6221
     19 C2'         0.4468   -0.3802    0.9263 C.3       1 ACP         0.1067
     20 O2'         1.3993   -1.3703    0.5961 O.3       1 ACP        -0.6053
     21 C1'        -0.6159   -0.9100    1.8769 C.3       1 ACP         0.4223
     22 N9         -1.7127   -1.6108    1.2130 N.pl3     1 ACP        -0.6834
     23 C8         -2.8641   -1.0399    0.7392 C.ar      1 ACP         0.5614
     24 N7         -3.6659   -1.9257    0.1858 N.2       1 ACP        -0.5751
     25 C5         -3.0053   -3.1223    0.3069 C.ar      1 ACP        -0.2117
     26 C6         -3.3321   -4.4178   -0.0813 C.ar      1 ACP         0.7177
     27 N6         -4.5476   -4.6866   -0.7335 N.pl3     1 ACP        -0.9401
     28 N1         -2.4608   -5.4225    0.1773 N.ar      1 ACP        -0.8008
     29 C2         -1.3053   -5.1020    0.8081 C.ar      1 ACP         0.6565
     30 N3         -0.8788   -3.8921    1.2315 N.ar      1 ACP        -0.7061
     31 C4         -1.7870   -2.9477    0.9438 C.ar      1 ACP         0.5715
     32 HOG3        2.9006    5.7512    1.3943 H         1 ACP         0.4226
     33 HOB2       -0.0097    2.3703   -3.3190 H         1 ACP         0.4482
     34 H3B1        0.6198    5.9278   -2.4390 H         1 ACP         0.1012
     35 H3B2        2.2702    5.3219   -2.3329 H         1 ACP         0.1012
     36 H5'1       -0.2034    3.2760    1.4766 H         1 ACP         0.0481
     37 H5'2       -1.7842    2.7761    2.1321 H         1 ACP         0.0481
     38 H4'         0.0403    1.7078    3.4343 H         1 ACP         0.0904
     39 H3'         1.5906    1.4859    1.1353 H         1 ACP         0.0809
     40 HO3'        2.6839   -0.1150    2.2479 H         1 ACP         0.4528
     41 H2'        -0.0017    0.0018    0.0005 H         1 ACP         0.0594
     42 HO2'        2.0953   -0.9375    0.0709 H         1 ACP         0.4344
     43 H1'        -0.1998   -1.6319    2.6178 H         1 ACP         0.1127
     44 H8         -3.0609    0.0200    0.8250 H         1 ACP         0.1050
     45 HN61       -5.2046   -3.9433   -0.8775 H         1 ACP         0.4211
     46 HN62       -4.7849   -5.6332   -0.9625 H         1 ACP         0.4211
     47 H2         -0.6318   -5.9307    0.9993 H         1 ACP         0.0375
@<TRIPOS>BOND
     1    1    2 2
     2    1    3 1
     3    1    4 1
     4    1    8 1
     5    4   32 1
     6    5    6 2
     7    5    7 1
     8    5    8 1
     9    5   12 1
    10    7   33 1
    11    8   34 1
    12    8   35 1
    13    9   10 2
    14    9   11 1
    15    9   12 1
    16    9   13 1
    17   13   14 1
    18   14   15 1
    19   14   36 1
    20   14   37 1
    21   15   16 1
    22   15   17 1
    23   15   38 1
    24   16   21 1
    25   17   18 1
    26   17   19 1
    27   17   39 1
    28   18   40 1
    29   19   20 1
    30   19   21 1
    31   19   41 1
    32   20   42 1
    33   21   22 1
    34   21   43 1
    35   22   23 ar
    36   22   31 ar
    37   23   24 ar
    38   23   44 1
    39   24   25 ar
    40   25   26 ar
    41   25   31 ar
    42   26   27 1
    43   26   28 ar
    44   27   45 1
    45   27   46 1
    46   28   29 ar
    47   29   30 ar
    48   29   47 1
    49   30   31 ar
@<TRIPOS>SUBSTRUCTURE
     1 ACP         1 GROUP 0 A     ****
@<TRIPOS>MOLECULE
[[[5-(6-aminopurin-9-yl)-3,4-dihydroxy-tetrahydrofuran-2-yl]methoxy-oxido-phosphoryl]oxy-hydroxy-phosphoryl]methyl-hydroxy-phosphinate
   47    49     1     0     0
SMALL
USER_CHARGES

@<TRIPOS>ATOM
      1 PG          5.4069    4.8417   -4.3615 P.3       1 ACP         1.3516
      2 O1G         4.2325    4.2837   -3.5916 O.co2     1 ACP        -0.8379
      3 O2G         5.7584    4.3671   -5.7526 O.co2     1 ACP        -0.8379
      4 O3G         5.3396    6.4712   -4.3464 O.3       1 ACP        -0.7980
      5 PB          7.5015    3.0187   -2.7357 P.3       1 ACP         1.7688
      6 O1B         8.7382    3.0649   -1.8892 O.2       1 ACP        -0.9167
      7 O2B         7.6417    2.1575   -4.0960 O.3       1 ACP        -0.8201
      8 C3B         6.9094    4.6263   -3.3056 C.3       1 ACP        -0.6097
      9 PA          5.8980    0.9306   -1.3851 P.3       1 ACP         1.5979
     10 O1A         6.7587    0.7749   -0.1503 O.co2     1 ACP        -0.8617
     11 O2A         5.9322   -0.1059   -2.4870 O.co2     1 ACP        -0.8617
     12 O3A         6.1874    2.4018   -2.0295 O.3       1 ACP        -0.8283
     13 O5'         4.3515    1.1573   -0.9028 O.3       1 ACP        -0.5783
     14 C5'         4.0922    1.9801    0.2227 C.3       1 ACP         0.1980
     15 C4'         2.5944    2.0310    0.4653 C.3       1 ACP         0.0815
     16 O4'         1.9327    2.5740   -0.6889 O.3       1 ACP        -0.4127
     17 C3'         1.9685    0.6634    0.6767 C.3       1 ACP         0.0890
     18 O3'         2.1425    0.1975    1.9977 O.3       1 ACP        -0.6221
     19 C2'         0.5176    0.9128    0.3099 C.3       1 ACP         0.1067
     20 O2'        -0.2103    1.4454    1.4152 O.3       1 ACP        -0.6053
     21 C1'         0.6219    1.9765   -0.7844 C.3       1 ACP         0.4223
     22 N9          0.4237    1.4496   -2.1357 N.pl3     1 ACP        -0.6834
     23 C8          1.4026    0.9717   -2.9660 C.ar      1 ACP         0.5614
     24 N7          0.9183    0.5619   -4.1197 N.2       1 ACP        -0.5751
     25 C5         -0.4330    0.7845   -4.0331 C.ar      1 ACP        -0.2117
     26 C6         -1.4794    0.5615   -4.9225 C.ar      1 ACP         0.7177
     27 N6         -1.2378    0.0044   -6.1899 N.pl3     1 ACP        -0.9401
     28 N1         -2.7406    0.8885   -4.5512 N.ar      1 ACP        -0.8008
     29 C2         -2.9113    1.4216   -3.3172 C.ar      1 ACP         0.6565
     30 N3         -1.9824    1.6843   -2.3721 N.ar      1 ACP        -0.7061
     31 C4         -0.7613    1.3370   -2.8054 C.ar      1 ACP         0.5715
     32 HOG3        4.5531    6.9105   -4.7346 H         1 ACP         0.4226
     33 HOB2        7.8650    1.2044   -4.0339 H         1 ACP         0.4482
     34 H3B1        7.7310    5.1092   -3.8466 H         1 ACP         0.1012
     35 H3B2        6.7158    5.2299   -2.4124 H         1 ACP         0.1012
     36 H5'1        4.6070    1.5616    1.0933 H         1 ACP         0.0481
     37 H5'2        4.4825    2.9835    0.0252 H         1 ACP         0.0481
     38 H4'         2.3751    2.7029    1.3156 H         1 ACP         0.0904
     39 H3'         2.4336   -0.1217   -0.0015 H         1 ACP         0.0809
     40 HO3'        1.7160   -0.6716    2.0397 H         1 ACP         0.4528
     41 H2'         0.0316    0.0155   -0.0339 H         1 ACP         0.0594
     42 HO2'       -0.1608    0.7921    2.1351 H         1 ACP         0.4344
     43 H1'        -0.1474    2.7798   -0.6651 H         1 ACP         0.1127
     44 H8          2.4442    0.9470   -2.6763 H         1 ACP         0.1050
     45 HN61       -0.2955   -0.1901   -6.4713 H         1 ACP         0.4211
     46 HN62       -1.9987   -0.1045   -6.8334 H         1 ACP         0.4211
     47 H2         -3.9335    1.6716   -3.0534 H         1 ACP         0.0375
@<TRIPOS>BOND
     1    1    2 2
     2    1    3 1
     3    1    4 1
     4    1    8 1
     5    4   32 1
     6    5    6 2
     7    5    7 1
     8    5    8 1
     9    5   12 1
    10    7   33 1
    11    8   34 1
    12    8   35 1
    13    9   10 2
    14    9   11 1
    15    9   12 1
    16    9   13 1
    17   13   14 1
    18   14   15 1
    19   14   36 1
    20   14   37 1
    21   15   16 1
    22   15   17 1
    23   15   38 1
    24   16   21 1
    25   17   18 1
    26   17   19 1
    27   17   39 1
    28   18   40 1
    29   19   20 1
    30   19   21 1
    31   19   41 1
    32   20   42 1
    33   21   22 1
    34   21   43 1
    35   22   23 ar
    36   22   31 ar
    37   23   24 ar
    38   23   44 1
    39   24   25 ar
    40   25   26 ar
    41   25   31 ar
    42   26   27 1
    43   26   28 ar
    44   27   45 1
    45   27   46 1
    46   28   29 ar
    47   29   30 ar
    48   29   47 1
    49   30   31 ar
@<TRIPOS>SUBSTRUCTURE
     1 ACP         1 GROUP 0 A     ****
@<TRIPOS>MOLECULE
[[[5-(6-aminopurin-9-yl)-3,4-dihydroxy-tetrahydrofuran-2-yl]methoxy-oxido-phosphoryl]oxy-hydroxy-phosphoryl]methyl-hydroxy-phosphinate
   47    49     1     0     0
SMALL
USER_CHARGES

@<TRIPOS>ATOM
      1 PG         -3.3348    7.1026   -0.1298 P.3       1 ACP         1.3516
      2 O1G        -4.7217    7.2748   -0.7044 O.co2     1 ACP        -0.8379
      3 O2G        -2.4028    6.0044   -0.5871 O.co2     1 ACP        -0.8379
      4 O3G        -2.5496    8.5315   -0.1722 O.3       1 ACP        -0.7980
      5 PB         -2.1157    6.7274    2.8244 P.3       1 ACP         1.7688
      6 O1B        -2.4789    6.6260    4.2756 O.2       1 ACP        -0.9167
      7 O2B        -1.1294    7.9532    2.4553 O.3       1 ACP        -0.8201
      8 C3B        -3.5140    6.9504    1.7043 C.3       1 ACP        -0.6097
      9 PA          0.0332    4.7085    2.5761 P.3       1 ACP         1.5979
     10 O1A        -0.1161    4.0779    3.9435 O.co2     1 ACP        -0.8617
     11 O2A         1.1770    5.6544    2.2817 O.co2     1 ACP        -0.8617
     12 O3A        -1.3743    5.4401    2.1925 O.3       1 ACP        -0.8283
     13 O5'         0.0181    3.5132    1.4596 O.3       1 ACP        -0.5783
     14 C5'        -0.8811    2.4285    1.6206 C.3       1 ACP         0.1980
     15 C4'        -0.1994    1.3333    2.4288 C.3       1 ACP         0.0815
     16 O4'        -1.1285    0.2356    2.5840 O.3       1 ACP        -0.4127
     17 C3'         1.0324    0.7610    1.7344 C.3       1 ACP         0.0890
     18 O3'         1.9175    0.2377    2.7247 O.3       1 ACP        -0.6221
     19 C2'         0.4468   -0.3802    0.9263 C.3       1 ACP         0.1067
     20 O2'         1.3993   -1.3703    0.5961 O.3       1 ACP        -0.6053
     21 C1'        -0.6159   -0.9100    1.8769 C.3       1 ACP         0.4223
     22 N9         -1.7127   -1.6108    1.2130 N.pl3     1 ACP        -0.6834
     23 C8         -2.8641   -1.0399    0.7392 C.ar      1 ACP         0.5614
     24 N7         -3.6659   -1.9257    0.1858 N.2       1 ACP        -0.5751
     25 C5         -3.0053   -3.1223    0.3069 C.ar      1 ACP        -0.2117
     26 C6         -3.3321   -4.4178   -0.0813 C.ar      1 ACP         0.7177
     27 N6         -4.5476   -4.6866   -0.7335 N.pl3     1 ACP        -0.9401
     28 N1         -2.4608   -5.4225    0.1773 N.ar      1 ACP        -0.8008
     29 C2         -1.3053   -5.1020    0.8081 C.ar      1 ACP         0.6565
     30 N3         -0.8788   -3.8921    1.2315 N.ar      1 ACP        -0.7061
     31 C4         -1.7870   -2.9477    0.9438 C.ar      1 ACP         0.5715
     32 HOG3       -2.4094    8.9626   -1.0421 H         1 ACP         0.4226
     33 HOB2       -0.2442    7.9938    2.8758 H         1 ACP         0.4482
     34 H3B1       -4.0602    7.8430    2.0298 H         1 ACP         0.1012
     35 H3B2       -4.1814    6.0947    1.8528 H         1 ACP         0.1012
     36 H5'1       -1.7769    2.7851    2.1387 H         1 ACP         0.0481
     37 H5'2       -1.1653    2.0543    0.6320 H         1 ACP         0.0481
     38 H4'         0.0403    1.7078    3.4343 H         1 ACP         0.0904
     39 H3'         1.5906    1.4859    1.1353 H         1 ACP         0.0809
     40 HO3'        2.6839   -0.1150    2.2479 H         1 ACP         0.4528
     41 H2'        -0.0017    0.0018    0.0005 H         1 ACP         0.0594
     42 HO2'        2.0953   -0.9375    0.0709 H         1 ACP         0.4344
     43 H1'        -0.1998   -1.6319    2.6178 H         1 ACP         0.1127
     44 H8         -3.0609    0.0200    0.8250 H         1 ACP         0.1050
     45 HN61       -5.2046   -3.9433   -0.8775 H         1 ACP         0.4211
     46 HN62       -4.7849   -5.6332   -0.9625 H         1 ACP         0.4211
     47 H2         -0.6318   -5.9307    0.9993 H         1 ACP         0.0375
@<TRIPOS>BOND
     1    1    2 2
     2    1    3 1
     3    1    4 1
     4    1    8 1
     5    4   32 1
     6    5    6 2
     7    5    7 1
     8    5    8 1
     9    5   12 1
    10    7   33 1
    11    8   34 1
    12    8   35 1
    13    9   10 2
    14    9   11 1
    15    9   12 1
    16    9   13 1
    17   13   14 1
    18   14   15 1
    19   14   36 1
    20   14   37 1
    21   15   16 1
    22   15   17 1
    23   15   38 1
    24   16   21 1
    25   17   18 1
    26   17   19 1
    27   17   39 1
    28   18   40 1
    29   19   20 1
    30   19   21 1
    31   19   41 1
    32   20   42 1
    33   21   22 1
    34   21   43 1
    35   22   23 ar
    36   22   31 ar
    37   23   24 ar
    38   23   44 1
    39   24   25 ar
    40   25   26 ar
    41   25   31 ar
    42   26   27 1
    43   26   28 ar
    44   27   45 1
    45   27   46 1
    46   28   29 ar
    47   29   30 ar
    48   29   47 1
    49   30   31 ar
@<TRIPOS>SUBSTRUCTURE
     1 ACP         1 GROUP 0 A     ****
@<TRIPOS>MOLECULE
[[[5-(6-aminopurin-9-yl)-3,4-dihydroxy-tetrahydrofuran-2-yl]methoxy-oxido-phosphoryl]oxy-hydroxy-phosphoryl]methyl-hydroxy-phosphinate
   47    49     1     0     0
SMALL
USER_CHARGES

@<TRIPOS>ATOM
      1 PG          6.8704    6.2792    2.4503 P.3       1 ACP         1.3516
      2 O1G         6.6969    7.6829    1.9185 O.co2     1 ACP        -0.8379
      3 O2G         7.5268    5.9964    3.7819 O.co2     1 ACP        -0.8379
      4 O3G         5.4455    5.4897    2.3706 O.3       1 ACP        -0.7980
      5 PB          8.2238    3.5724    1.3567 P.3       1 ACP         1.7688
      6 O1B         9.1080    3.2698    2.5291 O.2       1 ACP        -0.9167
      7 O2B         8.8429    3.1730   -0.0817 O.3       1 ACP        -0.8201
      8 C3B         7.7837    5.3129    1.1652 C.3       1 ACP        -0.6097
      9 PA          6.3567    1.2769    1.3738 P.3       1 ACP         1.5979
     10 O1A         6.7670    0.6862    2.7051 O.co2     1 ACP        -0.8617
     11 O2A         6.7982    0.6375    0.0753 O.co2     1 ACP        -0.8617
     12 O3A         6.7784    2.8535    1.3607 O.3       1 ACP        -0.8283
     13 O5'         4.7294    1.4426    1.3699 O.3       1 ACP        -0.5783
     14 C5'         4.0922    1.9801    0.2227 C.3       1 ACP         0.1980
     15 C4'         2.5944    2.0310    0.4653 C.3       1 ACP         0.0815
     16 O4'         1.9327    2.5740   -0.6889 O.3       1 ACP        -0.4127
     17 C3'         1.9685    0.6634    0.6767 C.3       1 ACP         0.0890
     18 O3'         2.1425    0.1975    1.9977 O.3       1 ACP        -0.6221
     19 C2'         0.5176    0.9128    0.3099 C.3       1 ACP         0.1067
     20 O2'        -0.2103    1.4454    1.4152 O.3       1 ACP        -0.6053
     21 C1'         0.6219    1.9765   -0.7844 C.3       1 ACP         0.4223
     22 N9          0.4237    1.4496   -2.1357 N.pl3     1 ACP        -0.6834
     23 C8          1.4026    0.9717   -2.9660 C.ar      1 ACP         0.5614
     24 N7          0.9183    0.5619   -4.1197 N.2       1 ACP        -0.5751
     25 C5         -0.4330    0.7845   -4.0331 C.ar      1 ACP        -0.2117
     26 C6         -1.4794    0.5615   -4.9225 C.ar      1 ACP         0.7177
     27 N6         -1.2378    0.0044   -6.1899 N.pl3     1 ACP        -0.9401
     28 N1         -2.7406    0.8885   -4.5512 N.ar      1 ACP        -0.8008
     29 C2         -2.9113    1.4216   -3.3172 C.ar      1 ACP         0.6565
     30 N3         -1.9824    1.6843   -2.3721 N.ar      1 ACP        -0.7061
     31 C4         -0.7613    1.3370   -2.8054 C.ar      1 ACP         0.5715
     32 HOG3        4.6809    5.8533    2.8660 H         1 ACP         0.4226
     33 HOB2        9.0745    2.2358   -0.2554 H         1 ACP         0.4482
     34 H3B1        7.1986    5.4073    0.2434 H         1 ACP         0.1012
     35 H3B2        8.7179    5.8629    1.0092 H         1 ACP         0.1012
     36 H5'1        4.4844    2.9853    0.0382 H         1 ACP         0.0481
     37 H5'2        4.3192    1.3445   -0.6390 H         1 ACP         0.0481
     38 H4'         2.3751    2.7029    1.3156 H         1 ACP         0.0904
     39 H3'         2.4336   -0.1217   -0.0015 H         1 ACP         0.0809
     40 HO3'        3.0987    0.1465    2.1461 H         1 ACP         0.4528
     41 H2'         0.0316    0.0155   -0.0339 H         1 ACP         0.0594
     42 HO2'       -0.1608    0.7921    2.1351 H         1 ACP         0.4344
     43 H1'        -0.1474    2.7798   -0.6651 H         1 ACP         0.1127
     44 H8          2.4442    0.9470   -2.6763 H         1 ACP         0.1050
     45 HN61       -0.2955   -0.1901   -6.4713 H         1 ACP         0.4211
     46 HN62       -1.9987   -0.1045   -6.8334 H         1 ACP         0.4211
     47 H2         -3.9335    1.6716   -3.0534 H         1 ACP         0.0375
@<TRIPOS>BOND
     1    1    2 2
     2    1    3 1
     3    1    4 1
     4    1    8 1
     5    4   32 1
     6    5    6 2
     7    5    7 1
     8    5    8 1
     9    5   12 1
    10    7   33 1
    11    8   34 1
    12    8   35 1
    13    9   10 2
    14    9   11 1
    15    9   12 1
    16    9   13 1
    17   13   14 1
    18   14   15 1
    19   14   36 1
    20   14   37 1
    21   15   16 1
    22   15   17 1
    23   15   38 1
    24   16   21 1
    25   17   18 1
    26   17   19 1
    27   17   39 1
    28   18   40 1
    29   19   20 1
    30   19   21 1
    31   19   41 1
    32   20   42 1
    33   21   22 1
    34   21   43 1
    35   22   23 ar
    36   22   31 ar
    37   23   24 ar
    38   23   44 1
    39   24   25 ar
    40   25   26 ar
    41   25   31 ar
    42   26   27 1
    43   26   28 ar
    44   27   45 1
    45   27   46 1
    46   28   29 ar
    47   29   30 ar
    48   29   47 1
    49   30   31 ar
@<TRIPOS>SUBSTRUCTURE
     1 ACP         1 GROUP 0 A     ****
@<TRIPOS>MOLECULE
[[[5-(6-aminopurin-9-yl)-3,4-dihydroxy-tetrahydrofuran-2-yl]methoxy-oxido-phosphoryl]oxy-hydroxy-phosphoryl]methyl-hydroxy-phosphinate
   47    49     1     0     0
SMALL
USER_CHARGES

@<TRIPOS>ATOM
      1 PG          1.3790    5.8366    4.7854 P.3       1 ACP         1.3516
      2 O1G         0.5767    6.4519    5.9084 O.co2     1 ACP        -0.8379
      3 O2G         2.8877    5.7571    4.8215 O.co2     1 ACP        -0.8379
      4 O3G         0.7679    4.3681    4.4245 O.3       1 ACP        -0.7980
      5 PB         -0.7773    6.7456    2.5767 P.3       1 ACP         1.7688
      6 O1B        -0.9463    7.5129    1.2997 O.2       1 ACP        -0.9167
      7 O2B        -1.6575    7.2905    3.8177 O.3       1 ACP        -0.8201
      8 C3B         0.9066    6.7130    3.2273 C.3       1 ACP        -0.6097
      9 PA         -2.5403    4.4097    2.1396 P.3       1 ACP         1.5979
     10 O1A        -2.8391    4.6469    0.6752 O.co2     1 ACP        -0.8617
     11 O2A        -3.5726    4.7244    3.2001 O.co2     1 ACP        -0.8617
     12 O3A        -1.1474    5.1757    2.5091 O.3       1 ACP        -0.8283
     13 O5'        -2.0402    2.8619    2.3131 O.3       1 ACP        -0.5783
     14 C5'        -0.8811    2.4285    1.6206 C.3       1 ACP         0.1980
     15 C4'        -0.1994    1.3333    2.4288 C.3       1 ACP         0.0815
     16 O4'        -1.1285    0.2356    2.5840 O.3       1 ACP        -0.4127
     17 C3'         1.0324    0.7610    1.7344 C.3       1 ACP         0.0890
     18 O3'         1.9175    0.2377    2.7247 O.3       1 ACP        -0.6221
     19 C2'         0.4468   -0.3802    0.9263 C.3       1 ACP         0.1067
     20 O2'         1.3993   -1.3703    0.5961 O.3       1 ACP        -0.6053
     21 C1'        -0.6159   -0.9100    1.8769 C.3       1 ACP         0.4223
     22 N9         -1.7127   -1.6108    1.2130 N.pl3     1 ACP        -0.6834
     23 C8         -2.0877   -2.9101    1.4304 C.ar      1 ACP         0.5614
     24 N7         -3.1152   -3.2613    0.6857 N.2       1 ACP        -0.5751
     25 C5         -3.4186   -2.1409   -0.0462 C.ar      1 ACP        -0.2117
     26 C6         -4.3953   -1.8809   -1.0023 C.ar      1 ACP         0.7177
     27 N6         -5.3118   -2.8767   -1.3812 N.pl3     1 ACP        -0.9401
     28 N1         -4.4538   -0.6507   -1.5667 N.ar      1 ACP        -0.8008
     29 C2         -3.5442    0.2679   -1.1609 C.ar      1 ACP         0.6565
     30 N3         -2.5561    0.1361   -0.2491 N.ar      1 ACP        -0.7061
     31 C4         -2.5568   -1.1019    0.2674 C.ar      1 ACP         0.5715
     32 HOG3        0.7515    3.6829    5.1263 H         1 ACP         0.4226
     33 HOB2       -2.6347    7.3088    3.7352 H         1 ACP         0.4482
     34 H3B1        1.2330    7.7515    3.3536 H         1 ACP         0.1012
     35 H3B2        1.5399    6.2704    2.4511 H         1 ACP         0.1012
     36 H5'1       -1.1770    2.0503    0.6369 H         1 ACP         0.0481
     37 H5'2       -0.2082    3.2815    1.4877 H         1 ACP         0.0481
     38 H4'         0.0403    1.7078    3.4343 H         1 ACP         0.0904
     39 H3'         1.5906    1.4859    1.1353 H         1 ACP         0.0809
     40 HO3'        2.6839   -0.1150    2.2479 H         1 ACP         0.4528
     41 H2'        -0.0017    0.0018    0.0005 H         1 ACP         0.0594
     42 HO2'        0.9369   -2.0558    0.0825 H         1 ACP         0.4344
     43 H1'        -0.1998   -1.6319    2.6178 H         1 ACP         0.1127
     44 H8         -1.5778   -3.5473    2.1399 H         1 ACP         0.1050
     45 HN61       -5.2294   -3.7965   -0.9914 H         1 ACP         0.4211
     46 HN62       -5.9774   -2.6837   -2.1055 H         1 ACP         0.4211
     47 H2         -3.6201    1.2414   -1.6336 H         1 ACP         0.0375
@<TRIPOS>BOND
     1    1    2 2
     2    1    3 1
     3    1    4 1
     4    1    8 1
     5    4   32 1
     6    5    6 2
     7    5    7 1
     8    5    8 1
     9    5   12 1
    10    7   33 1
    11    8   34 1
    12    8   35 1
    13    9   10 2
    14    9   11 1
    15    9   12 1
    16    9   13 1
    17   13   14 1
    18   14   15 1
    19   14   36 1
    20   14   37 1
    21   15   16 1
    22   15   17 1
    23   15   38 1
    24   16   21 1
    25   17   18 1
    26   17   19 1
    27   17   39 1
    28   18   40 1
    29   19   20 1
    30   19   21 1
    31   19   41 1
    32   20   42 1
    33   21   22 1
    34   21   43 1
    35   22   23 ar
    36   22   31 ar
    37   23   24 ar
    38   23   44 1
    39   24   25 ar
    40   25   26 ar
    41   25   31 ar
    42   26   27 1
    43   26   28 ar
    44   27   45 1
    45   27   46 1
    46   28   29 ar
    47   29   30 ar
    48   29   47 1
    49   30   31 ar
@<TRIPOS>SUBSTRUCTURE
     1 ACP         1 GROUP 0 A     ****
@<TRIPOS>MOLECULE
[[[5-(6-aminopurin-9-yl)-3,4-dihydroxy-tetrahydrofuran-2-yl]methoxy-oxido-phosphoryl]oxy-hydroxy-phosphoryl]methyl-hydroxy-phosphinate
   47    49     1     0     0
SMALL
USER_CHARGES

@<TRIPOS>ATOM
      1 PG          9.2521    5.2785    1.3520 P.3       1 ACP         1.3516
      2 O1G         9.6961    6.6131    0.7997 O.co2     1 ACP        -0.8379
      3 O2G         9.4721    3.9831    0.6055 O.co2     1 ACP        -0.8379
      4 O3G         9.7915    5.1193    2.8830 O.3       1 ACP        -0.7980
      5 PB          6.4680    4.0506    2.3983 P.3       1 ACP         1.7688
      6 O1B         5.0187    4.3642    2.6204 O.2       1 ACP        -0.9167
      7 O2B         7.2814    3.6221    3.7274 O.3       1 ACP        -0.8201
      8 C3B         7.4442    5.4083    1.7176 C.3       1 ACP        -0.6097
      9 PA          6.3567    1.2769    1.3738 P.3       1 ACP         1.5979
     10 O1A         6.7670    0.6862    2.7051 O.co2     1 ACP        -0.8617
     11 O2A         6.7982    0.6375    0.0753 O.co2     1 ACP        -0.8617
     12 O3A         6.7784    2.8535    1.3607 O.3       1 ACP        -0.8283
     13 O5'         4.7294    1.4426    1.3699 O.3       1 ACP        -0.5783
     14 C5'         4.0922    1.9801    0.2227 C.3       1 ACP         0.1980
     15 C4'         2.5944    2.0310    0.4653 C.3       1 ACP         0.0815
     16 O4'         1.9327    2.5740   -0.6889 O.3       1 ACP        -0.4127
     17 C3'         1.9685    0.6634    0.6767 C.3       1 ACP         0.0890
     18 O3'         2.1425    0.1975    1.9977 O.3       1 ACP        -0.6221
     19 C2'         0.5176    0.9128    0.3099 C.3       1 ACP         0.1067
     20 O2'        -0.2103    1.4454    1.4152 O.3       1 ACP        -0.6053
     21 C1'         0.6219    1.9765   -0.7844 C.3       1 ACP         0.4223
     22 N9          0.4237    1.4496   -2.1357 N.pl3     1 ACP        -0.6834
     23 C8          1.4026    0.9717   -2.9660 C.ar      1 ACP         0.5614
     24 N7          0.9183    0.5619   -4.1197 N.2       1 ACP        -0.5751
     25 C5         -0.4330    0.7845   -4.0331 C.ar      1 ACP        -0.2117
     26 C6         -1.4794    0.5615   -4.9225 C.ar      1 ACP         0.7177
     27 N6         -1.2378    0.0044   -6.1899 N.pl3     1 ACP        -0.9401
     28 N1         -2.7406    0.8885   -4.5512 N.ar      1 ACP        -0.8008
     29 C2         -2.9113    1.4216   -3.3172 C.ar      1 ACP         0.6565
     30 N3         -1.9824    1.6843   -2.3721 N.ar      1 ACP        -0.7061
     31 C4         -0.7613    1.3370   -2.8054 C.ar      1 ACP         0.5715
     32 HOG3       10.7587    5.1485    3.0436 H         1 ACP         0.4226
     33 HOB2        6.9903    2.8303    4.2278 H         1 ACP         0.4482
     34 H3B1        7.3325    6.2663    2.3901 H         1 ACP         0.1012
     35 H3B2        6.9825    5.6865    0.7642 H         1 ACP         0.1012
     36 H5'1        4.4844    2.9853    0.0382 H         1 ACP         0.0481
     37 H5'2        4.3192    1.3445   -0.6390 H         1 ACP         0.0481
     38 H4'         2.3751    2.7029    1.3156 H         1 ACP         0.0904
     39 H3'         2.4336   -0.1217   -0.0015 H         1 ACP         0.0809
     40 HO3'        3.0987    0.1465    2.1461 H         1 ACP         0.4528
     41 H2'         0.0316    0.0155   -0.0339 H         1 ACP         0.0594
     42 HO2'       -0.1608    0.7921    2.1351 H         1 ACP         0.4344
     43 H1'        -0.1474    2.7798   -0.6651 H         1 ACP         0.1127
     44 H8          2.4442    0.9470   -2.6763 H         1 ACP         0.1050
     45 HN61       -0.2955   -0.1901   -6.4713 H         1 ACP         0.4211
     46 HN62       -1.9987   -0.1045   -6.8334 H         1 ACP         0.4211
     47 H2         -3.9335    1.6716   -3.0534 H         1 ACP         0.0375
@<TRIPOS>BOND
     1    1    2 2
     2    1    3 1
     3    1    4 1
     4    1    8 1
     5    4   32 1
     6    5    6 2
     7    5    7 1
     8    5    8 1
     9    5   12 1
    10    7   33 1
    11    8   34 1
    12    8   35 1
    13    9   10 2
    14    9   11 1
    15    9   12 1
    16    9   13 1
    17   13   14 1
    18   14   15 1
    19   14   36 1
    20   14   37 1
    21   15   16 1
    22   15   17 1
    23   15   38 1
    24   16   21 1
    25   17   18 1
    26   17   19 1
    27   17   39 1
    28   18   40 1
    29   19   20 1
    30   19   21 1
    31   19   41 1
    32   20   42 1
    33   21   22 1
    34   21   43 1
    35   22   23 ar
    36   22   31 ar
    37   23   24 ar
    38   23   44 1
    39   24   25 ar
    40   25   26 ar
    41   25   31 ar
    42   26   27 1
    43   26   28 ar
    44   27   45 1
    45   27   46 1
    46   28   29 ar
    47   29   30 ar
    48   29   47 1
    49   30   31 ar
@<TRIPOS>SUBSTRUCTURE
     1 ACP         1 GROUP 0 A     ****
@<TRIPOS>MOLECULE
[[[5-(6-aminopurin-9-yl)-3,4-dihydroxy-tetrahydrofuran-2-yl]methoxy-oxido-phosphoryl]oxy-hydroxy-phosphoryl]methyl-hydroxy-phosphinate
   47    49     1     0     0
SMALL
USER_CHARGES

@<TRIPOS>ATOM
      1 PG          7.1318    1.2074    3.9375 P.3       1 ACP         1.3516
      2 O1G         8.0652    0.7365    5.0285 O.co2     1 ACP        -0.8379
      3 O2G         7.1558    0.6187    2.5458 O.co2     1 ACP        -0.8379
      4 O3G         5.6003    1.2092    4.4982 O.3       1 ACP        -0.7980
      5 PB          6.4464    4.0449    2.5838 P.3       1 ACP         1.7688
      6 O1B         6.7792    5.5067    2.6113 O.2       1 ACP        -0.9167
      7 O2B         4.8988    3.6950    2.8908 O.3       1 ACP        -0.8201
      8 C3B         7.3577    3.0350    3.7709 C.3       1 ACP        -0.6097
      9 PA          6.1595    3.5245   -0.3149 P.3       1 ACP         1.5979
     10 O1A         6.6440    2.3951   -1.1979 O.co2     1 ACP        -0.8617
     11 O2A         6.3928    4.9672   -0.7072 O.co2     1 ACP        -0.8617
     12 O3A         6.7392    3.2823    1.1914 O.3       1 ACP        -0.8283
     13 O5'         4.5669    3.2940   -0.0211 O.3       1 ACP        -0.5783
     14 C5'         4.0922    1.9801    0.2227 C.3       1 ACP         0.1980
     15 C4'         2.5944    2.0310    0.4653 C.3       1 ACP         0.0815
     16 O4'         1.9327    2.5740   -0.6889 O.3       1 ACP        -0.4127
     17 C3'         1.9685    0.6634    0.6767 C.3       1 ACP         0.0890
     18 O3'         2.1425    0.1975    1.9977 O.3       1 ACP        -0.6221
     19 C2'         0.5176    0.9128    0.3099 C.3       1 ACP         0.1067
     20 O2'        -0.2103    1.4454    1.4152 O.3       1 ACP        -0.6053
     21 C1'         0.6219    1.9765   -0.7844 C.3       1 ACP         0.4223
     22 N9          0.4237    1.4496   -2.1357 N.pl3     1 ACP        -0.6834
     23 C8         -0.7736    1.3475   -2.7932 C.ar      1 ACP         0.5614
     24 N7         -0.6356    0.8373   -3.9991 N.2       1 ACP        -0.5751
     25 C5          0.7095    0.5981   -4.1281 C.ar      1 ACP        -0.2117
     26 C6          1.4733    0.0704   -5.1643 C.ar      1 ACP         0.7177
     27 N6          0.8693   -0.3355   -6.3666 N.pl3     1 ACP        -0.9401
     28 N1          2.8130   -0.0482   -5.0009 N.ar      1 ACP        -0.8008
     29 C2          3.3380    0.3602   -3.8204 C.ar      1 ACP         0.6565
     30 N3          2.7052    0.8841   -2.7480 N.ar      1 ACP        -0.7061
     31 C4          1.3867    0.9726   -2.9785 C.ar      1 ACP         0.5715
     32 HOG3        5.2153    0.3625    4.8101 H         1 ACP         0.4226
     33 HOB2        4.2037    4.0590    2.3022 H         1 ACP         0.4482
     34 H3B1        7.1795    3.4538    4.7679 H         1 ACP         0.1012
     35 H3B2        8.4226    3.1693    3.5529 H         1 ACP         0.1012
     36 H5'1        4.3180    1.3550   -0.6470 H         1 ACP         0.0481
     37 H5'2        4.6085    1.5739    1.0983 H         1 ACP         0.0481
     38 H4'         2.3751    2.7029    1.3156 H         1 ACP         0.0904
     39 H3'         2.4336   -0.1217   -0.0015 H         1 ACP         0.0809
     40 HO3'        3.0987    0.1465    2.1461 H         1 ACP         0.4528
     41 H2'         0.0316    0.0155   -0.0339 H         1 ACP         0.0594
     42 HO2'       -0.1608    0.7921    2.1351 H         1 ACP         0.4344
     43 H1'        -0.1474    2.7798   -0.6651 H         1 ACP         0.1127
     44 H8         -1.7070    1.6599   -2.3451 H         1 ACP         0.1050
     45 HN61       -0.1277   -0.2866   -6.4583 H         1 ACP         0.4211
     46 HN62        1.4308   -0.7566   -7.0823 H         1 ACP         0.4211
     47 H2          4.4130    0.2505   -3.7241 H         1 ACP         0.0375
@<TRIPOS>BOND
     1    1    2 2
     2    1    3 1
     3    1    4 1
     4    1    8 1
     5    4   32 1
     6    5    6 2
     7    5    7 1
     8    5    8 1
     9    5   12 1
    10    7   33 1
    11    8   34 1
    12    8   35 1
    13    9   10 2
    14    9   11 1
    15    9   12 1
    16    9   13 1
    17   13   14 1
    18   14   15 1
    19   14   36 1
    20   14   37 1
    21   15   16 1
    22   15   17 1
    23   15   38 1
    24   16   21 1
    25   17   18 1
    26   17   19 1
    27   17   39 1
    28   18   40 1
    29   19   20 1
    30   19   21 1
    31   19   41 1
    32   20   42 1
    33   21   22 1
    34   21   43 1
    35   22   23 ar
    36   22   31 ar
    37   23   24 ar
    38   23   44 1
    39   24   25 ar
    40   25   26 ar
    41   25   31 ar
    42   26   27 1
    43   26   28 ar
    44   27   45 1
    45   27   46 1
    46   28   29 ar
    47   29   30 ar
    48   29   47 1
    49   30   31 ar
@<TRIPOS>SUBSTRUCTURE
     1 ACP         1 GROUP 0 A     ****
@<TRIPOS>MOLECULE
[[[5-(6-aminopurin-9-yl)-3,4-dihydroxy-tetrahydrofuran-2-yl]methoxy-oxido-phosphoryl]oxy-hydroxy-phosphoryl]methyl-hydroxy-phosphinate
   47    49     1     0     0
SMALL
USER_CHARGES

@<TRIPOS>ATOM
      1 PG          9.0388   -1.5894    1.4752 P.3       1 ACP         1.3516
      2 O1G         9.7302   -1.8705    2.7891 O.co2     1 ACP        -0.8379
      3 O2G         9.3331   -0.3534    0.6570 O.co2     1 ACP        -0.8379
      4 O3G         9.1359   -2.9072    0.5192 O.3       1 ACP        -0.7980
      5 PB          5.9791   -1.3396    0.5109 P.3       1 ACP         1.7688
      6 O1B         4.5567   -1.4114    0.9796 O.2       1 ACP        -0.9167
      7 O2B         6.3690   -2.4039   -0.6411 O.3       1 ACP        -0.8201
      8 C3B         7.2177   -1.6236    1.7935 C.3       1 ACP        -0.6097
      9 PA          5.8980    0.9306   -1.3851 P.3       1 ACP         1.5979
     10 O1A         5.8858    0.0210   -2.5944 O.co2     1 ACP        -0.8617
     11 O2A         6.6098    2.2652   -1.4287 O.co2     1 ACP        -0.8617
     12 O3A         6.4463    0.0768   -0.1069 O.3       1 ACP        -0.8283
     13 O5'         4.3515    1.1573   -0.9028 O.3       1 ACP        -0.5783
     14 C5'         4.0922    1.9801    0.2227 C.3       1 ACP         0.1980
     15 C4'         2.5944    2.0310    0.4653 C.3       1 ACP         0.0815
     16 O4'         1.9327    2.5740   -0.6889 O.3       1 ACP        -0.4127
     17 C3'         1.9685    0.6634    0.6767 C.3       1 ACP         0.0890
     18 O3'         2.1425    0.1975    1.9977 O.3       1 ACP        -0.6221
     19 C2'         0.5176    0.9128    0.3099 C.3       1 ACP         0.1067
     20 O2'        -0.2103    1.4454    1.4152 O.3       1 ACP        -0.6053
     21 C1'         0.6219    1.9765   -0.7844 C.3       1 ACP         0.4223
     22 N9          0.4237    1.4496   -2.1357 N.pl3     1 ACP        -0.6834
     23 C8          1.4026    0.9717   -2.9660 C.ar      1 ACP         0.5614
     24 N7          0.9183    0.5619   -4.1197 N.2       1 ACP        -0.5751
     25 C5         -0.4330    0.7845   -4.0331 C.ar      1 ACP        -0.2117
     26 C6         -1.4794    0.5615   -4.9225 C.ar      1 ACP         0.7177
     27 N6         -1.2378    0.0044   -6.1899 N.pl3     1 ACP        -0.9401
     28 N1         -2.7406    0.8885   -4.5512 N.ar      1 ACP        -0.8008
     29 C2         -2.9113    1.4216   -3.3172 C.ar      1 ACP         0.6565
     30 N3         -1.9824    1.6843   -2.3721 N.ar      1 ACP        -0.7061
     31 C4         -0.7613    1.3370   -2.8054 C.ar      1 ACP         0.5715
     32 HOG3       10.0244   -3.2396    0.2694 H         1 ACP         0.4226
     33 HOB2        5.8864   -2.3781   -1.4946 H         1 ACP         0.4482
     34 H3B1        7.0081   -2.5993    2.2462 H         1 ACP         0.1012
     35 H3B2        7.0523   -0.8685    2.5694 H         1 ACP         0.1012
     36 H5'1        4.6070    1.5616    1.0933 H         1 ACP         0.0481
     37 H5'2        4.4825    2.9835    0.0252 H         1 ACP         0.0481
     38 H4'         2.3751    2.7029    1.3156 H         1 ACP         0.0904
     39 H3'         2.4336   -0.1217   -0.0015 H         1 ACP         0.0809
     40 HO3'        1.7160   -0.6716    2.0397 H         1 ACP         0.4528
     41 H2'         0.0316    0.0155   -0.0339 H         1 ACP         0.0594
     42 HO2'       -0.1608    0.7921    2.1351 H         1 ACP         0.4344
     43 H1'        -0.1474    2.7798   -0.6651 H         1 ACP         0.1127
     44 H8          2.4442    0.9470   -2.6763 H         1 ACP         0.1050
     45 HN61       -0.2955   -0.1901   -6.4713 H         1 ACP         0.4211
     46 HN62       -1.9987   -0.1045   -6.8334 H         1 ACP         0.4211
     47 H2         -3.9335    1.6716   -3.0534 H         1 ACP         0.0375
@<TRIPOS>BOND
     1    1    2 2
     2    1    3 1
     3    1    4 1
     4    1    8 1
     5    4   32 1
     6    5    6 2
     7    5    7 1
     8    5    8 1
     9    5   12 1
    10    7   33 1
    11    8   34 1
    12    8   35 1
    13    9   10 2
    14    9   11 1
    15    9   12 1
    16    9   13 1
    17   13   14 1
    18   14   15 1
    19   14   36 1
    20   14   37 1
    21   15   16 1
    22   15   17 1
    23   15   38 1
    24   16   21 1
    25   17   18 1
    26   17   19 1
    27   17   39 1
    28   18   40 1
    29   19   20 1
    30   19   21 1
    31   19   41 1
    32   20   42 1
    33   21   22 1
    34   21   43 1
    35   22   23 ar
    36   22   31 ar
    37   23   24 ar
    38   23   44 1
    39   24   25 ar
    40   25   26 ar
    41   25   31 ar
    42   26   27 1
    43   26   28 ar
    44   27   45 1
    45   27   46 1
    46   28   29 ar
    47   29   30 ar
    48   29   47 1
    49   30   31 ar
@<TRIPOS>SUBSTRUCTURE
     1 ACP         1 GROUP 0 A     ****
@<TRIPOS>MOLECULE
[[[5-(6-aminopurin-9-yl)-3,4-dihydroxy-tetrahydrofuran-2-yl]methoxy-oxido-phosphoryl]oxy-hydroxy-phosphoryl]methyl-hydroxy-phosphinate
   47    49     1     0     0
SMALL
USER_CHARGES

@<TRIPOS>ATOM
      1 PG         -3.7936    3.8983   -1.6937 P.3       1 ACP         1.3516
      2 O1G        -3.4093    3.3906   -0.3234 O.co2     1 ACP        -0.8379
      3 O2G        -3.9628    2.9746   -2.8778 O.co2     1 ACP        -0.8379
      4 O3G        -5.1036    4.8614   -1.5669 O.3       1 ACP        -0.7980
      5 PB         -0.7882    4.8634   -2.3185 P.3       1 ACP         1.7688
      6 O1B         0.0407    6.0482   -2.7151 O.2       1 ACP        -0.9167
      7 O2B        -0.7135    3.6109   -3.3371 O.3       1 ACP        -0.8201
      8 C3B        -2.5578    5.1890   -2.1689 C.3       1 ACP        -0.6097
      9 PA         -0.4663    4.8326    0.6227 P.3       1 ACP         1.5979
     10 O1A        -1.9050    5.1225    0.9915 O.co2     1 ACP        -0.8617
     11 O2A         0.5913    5.9095    0.7295 O.co2     1 ACP        -0.8617
     12 O3A        -0.4395    4.2082   -0.8850 O.3       1 ACP        -0.8283
     13 O5'         0.0181    3.5132    1.4596 O.3       1 ACP        -0.5783
     14 C5'        -0.8811    2.4285    1.6206 C.3       1 ACP         0.1980
     15 C4'        -0.1994    1.3333    2.4288 C.3       1 ACP         0.0815
     16 O4'        -1.1285    0.2356    2.5840 O.3       1 ACP        -0.4127
     17 C3'         1.0324    0.7610    1.7344 C.3       1 ACP         0.0890
     18 O3'         1.9175    0.2377    2.7247 O.3       1 ACP        -0.6221
     19 C2'         0.4468   -0.3802    0.9263 C.3       1 ACP         0.1067
     20 O2'         1.3993   -1.3703    0.5961 O.3       1 ACP        -0.6053
     21 C1'        -0.6159   -0.9100    1.8769 C.3       1 ACP         0.4223
     22 N9         -1.7127   -1.6108    1.2130 N.pl3     1 ACP        -0.6834
     23 C8         -2.8641   -1.0399    0.7392 C.ar      1 ACP         0.5614
     24 N7         -3.6659   -1.9257    0.1858 N.2       1 ACP        -0.5751
     25 C5         -3.0053   -3.1223    0.3069 C.ar      1 ACP        -0.2117
     26 C6         -3.3321   -4.4178   -0.0813 C.ar      1 ACP         0.7177
     27 N6         -4.5476   -4.6866   -0.7335 N.pl3     1 ACP        -0.9401
     28 N1         -2.4608   -5.4225    0.1773 N.ar      1 ACP        -0.8008
     29 C2         -1.3053   -5.1020    0.8081 C.ar      1 ACP         0.6565
     30 N3         -0.8788   -3.8921    1.2315 N.ar      1 ACP        -0.7061
     31 C4         -1.7870   -2.9477    0.9438 C.ar      1 ACP         0.5715
     32 HOG3       -5.9298    4.4814   -1.1989 H         1 ACP         0.4226
     33 HOB2        0.1548    3.1871   -3.5060 H         1 ACP         0.4482
     34 H3B1       -2.9013    5.5989   -3.1255 H         1 ACP         0.1012
     35 H3B2       -2.6743    5.9806   -1.4210 H         1 ACP         0.1012
     36 H5'1       -1.7769    2.7851    2.1387 H         1 ACP         0.0481
     37 H5'2       -1.1653    2.0543    0.6320 H         1 ACP         0.0481
     38 H4'         0.0403    1.7078    3.4343 H         1 ACP         0.0904
     39 H3'         1.5906    1.4859    1.1353 H         1 ACP         0.0809
     40 HO3'        2.6839   -0.1150    2.2479 H         1 ACP         0.4528
     41 H2'        -0.0017    0.0018    0.0005 H         1 ACP         0.0594
     42 HO2'        2.0953   -0.9375    0.0709 H         1 ACP         0.4344
     43 H1'        -0.1998   -1.6319    2.6178 H         1 ACP         0.1127
     44 H8         -3.0609    0.0200    0.8250 H         1 ACP         0.1050
     45 HN61       -5.2046   -3.9433   -0.8775 H         1 ACP         0.4211
     46 HN62       -4.7849   -5.6332   -0.9625 H         1 ACP         0.4211
     47 H2         -0.6318   -5.9307    0.9993 H         1 ACP         0.0375
@<TRIPOS>BOND
     1    1    2 2
     2    1    3 1
     3    1    4 1
     4    1    8 1
     5    4   32 1
     6    5    6 2
     7    5    7 1
     8    5    8 1
     9    5   12 1
    10    7   33 1
    11    8   34 1
    12    8   35 1
    13    9   10 2
    14    9   11 1
    15    9   12 1
    16    9   13 1
    17   13   14 1
    18   14   15 1
    19   14   36 1
    20   14   37 1
    21   15   16 1
    22   15   17 1
    23   15   38 1
    24   16   21 1
    25   17   18 1
    26   17   19 1
    27   17   39 1
    28   18   40 1
    29   19   20 1
    30   19   21 1
    31   19   41 1
    32   20   42 1
    33   21   22 1
    34   21   43 1
    35   22   23 ar
    36   22   31 ar
    37   23   24 ar
    38   23   44 1
    39   24   25 ar
    40   25   26 ar
    41   25   31 ar
    42   26   27 1
    43   26   28 ar
    44   27   45 1
    45   27   46 1
    46   28   29 ar
    47   29   30 ar
    48   29   47 1
    49   30   31 ar
@<TRIPOS>SUBSTRUCTURE
     1 ACP         1 GROUP 0 A     ****
@<TRIPOS>MOLECULE
[[[5-(6-aminopurin-9-yl)-3,4-dihydroxy-tetrahydrofuran-2-yl]methoxy-oxido-phosphoryl]oxy-hydroxy-phosphoryl]methyl-hydroxy-phosphinate
   47    49     1     0     0
SMALL
USER_CHARGES

@<TRIPOS>ATOM
      1 PG          7.1889    0.0344    3.9278 P.3       1 ACP         1.3516
      2 O1G         5.8254    0.0892    3.2788 O.co2     1 ACP        -0.8379
      3 O2G         7.3825   -0.3987    5.3626 O.co2     1 ACP        -0.8379
      4 O3G         8.2125   -0.7974    2.9684 O.3       1 ACP        -0.7980
      5 PB          8.2746    2.4855    2.1479 P.3       1 ACP         1.7688
      6 O1B         9.2011    1.7220    1.2496 O.2       1 ACP        -0.9167
      7 O2B         8.7781    3.9707    2.5383 O.3       1 ACP        -0.8201
      8 C3B         7.9527    1.7085    3.7456 C.3       1 ACP        -0.6097
      9 PA          6.2488    3.4955    0.2423 P.3       1 ACP         1.5979
     10 O1A         6.6915    2.7044   -0.9692 O.co2     1 ACP        -0.8617
     11 O2A         6.5659    4.9703    0.3608 O.co2     1 ACP        -0.8617
     12 O3A         6.7832    2.7273    1.5794 O.3       1 ACP        -0.8283
     13 O5'         4.6405    3.2701    0.4379 O.3       1 ACP        -0.5783
     14 C5'         4.0922    1.9801    0.2227 C.3       1 ACP         0.1980
     15 C4'         2.5944    2.0310    0.4653 C.3       1 ACP         0.0815
     16 O4'         1.9327    2.5740   -0.6889 O.3       1 ACP        -0.4127
     17 C3'         1.9685    0.6634    0.6767 C.3       1 ACP         0.0890
     18 O3'         2.1425    0.1975    1.9977 O.3       1 ACP        -0.6221
     19 C2'         0.5176    0.9128    0.3099 C.3       1 ACP         0.1067
     20 O2'        -0.2103    1.4454    1.4152 O.3       1 ACP        -0.6053
     21 C1'         0.6219    1.9765   -0.7844 C.3       1 ACP         0.4223
     22 N9          0.4237    1.4496   -2.1357 N.pl3     1 ACP        -0.6834
     23 C8          1.4026    0.9717   -2.9660 C.ar      1 ACP         0.5614
     24 N7          0.9183    0.5619   -4.1197 N.2       1 ACP        -0.5751
     25 C5         -0.4330    0.7845   -4.0331 C.ar      1 ACP        -0.2117
     26 C6         -1.4794    0.5615   -4.9225 C.ar      1 ACP         0.7177
     27 N6         -1.2378    0.0044   -6.1899 N.pl3     1 ACP        -0.9401
     28 N1         -2.7406    0.8885   -4.5512 N.ar      1 ACP        -0.8008
     29 C2         -2.9113    1.4216   -3.3172 C.ar      1 ACP         0.6565
     30 N3         -1.9824    1.6843   -2.3721 N.ar      1 ACP        -0.7061
     31 C4         -0.7613    1.3370   -2.8054 C.ar      1 ACP         0.5715
     32 HOG3        7.9986   -1.7305    2.7540 H         1 ACP         0.4226
     33 HOB2        8.9299    4.6241    1.8227 H         1 ACP         0.4482
     34 H3B1        7.3234    2.3927    4.3259 H         1 ACP         0.1012
     35 H3B2        8.9140    1.6386    4.2658 H         1 ACP         0.1012
     36 H5'1        4.3030    1.6731   -0.8066 H         1 ACP         0.0481
     37 H5'2        4.5679    1.2740    0.9106 H         1 ACP         0.0481
     38 H4'         2.3751    2.7029    1.3156 H         1 ACP         0.0904
     39 H3'         2.4336   -0.1217   -0.0015 H         1 ACP         0.0809
     40 HO3'        1.7160   -0.6716    2.0397 H         1 ACP         0.4528
     41 H2'         0.0316    0.0155   -0.0339 H         1 ACP         0.0594
     42 HO2'       -0.1608    0.7921    2.1351 H         1 ACP         0.4344
     43 H1'        -0.1474    2.7798   -0.6651 H         1 ACP         0.1127
     44 H8          2.4442    0.9470   -2.6763 H         1 ACP         0.1050
     45 HN61       -0.2955   -0.1901   -6.4713 H         1 ACP         0.4211
     46 HN62       -1.9987   -0.1045   -6.8334 H         1 ACP         0.4211
     47 H2         -3.9335    1.6716   -3.0534 H         1 ACP         0.0375
@<TRIPOS>BOND
     1    1    2 2
     2    1    3 1
     3    1    4 1
     4    1    8 1
     5    4   32 1
     6    5    6 2
     7    5    7 1
     8    5    8 1
     9    5   12 1
    10    7   33 1
    11    8   34 1
    12    8   35 1
    13    9   10 2
    14    9   11 1
    15    9   12 1
    16    9   13 1
    17   13   14 1
    18   14   15 1
    19   14   36 1
    20   14   37 1
    21   15   16 1
    22   15   17 1
    23   15   38 1
    24   16   21 1
    25   17   18 1
    26   17   19 1
    27   17   39 1
    28   18   40 1
    29   19   20 1
    30   19   21 1
    31   19   41 1
    32   20   42 1
    33   21   22 1
    34   21   43 1
    35   22   23 ar
    36   22   31 ar
    37   23   24 ar
    38   23   44 1
    39   24   25 ar
    40   25   26 ar
    41   25   31 ar
    42   26   27 1
    43   26   28 ar
    44   27   45 1
    45   27   46 1
    46   28   29 ar
    47   29   30 ar
    48   29   47 1
    49   30   31 ar
@<TRIPOS>SUBSTRUCTURE
     1 ACP         1 GROUP 0 A     ****
@<TRIPOS>MOLECULE
[[[5-(6-aminopurin-9-yl)-3,4-dihydroxy-tetrahydrofuran-2-yl]methoxy-oxido-phosphoryl]oxy-hydroxy-phosphoryl]methyl-hydroxy-phosphinate
   47    49     1     0     0
SMALL
USER_CHARGES

@<TRIPOS>ATOM
      1 PG         -1.3780    8.0631    4.5942 P.3       1 ACP         1.3516
      2 O1G        -2.1422    7.9644    3.2944 O.co2     1 ACP        -0.8379
      3 O2G        -0.1837    8.9741    4.7605 O.co2     1 ACP        -0.8379
      4 O3G        -2.4242    8.3128    5.8202 O.3       1 ACP        -0.7980
      5 PB          0.2295    5.3390    4.0029 P.3       1 ACP         1.7688
      6 O1B         0.5475    3.9817    4.5549 O.2       1 ACP        -0.9167
      7 O2B         1.5146    6.2825    3.7383 O.3       1 ACP        -0.8201
      8 C3B        -0.8389    6.3533    5.0468 C.3       1 ACP        -0.6097
      9 PA         -2.0038    4.7531    2.1525 P.3       1 ACP         1.5979
     10 O1A        -2.1508    4.9097    0.6546 O.co2     1 ACP        -0.8617
     11 O2A        -3.0647    5.2822    3.0929 O.co2     1 ACP        -0.8617
     12 O3A        -0.5536    5.3594    2.5914 O.3       1 ACP        -0.8283
     13 O5'        -1.7337    3.1724    2.4753 O.3       1 ACP        -0.5783
     14 C5'        -0.8811    2.4285    1.6206 C.3       1 ACP         0.1980
     15 C4'        -0.1994    1.3333    2.4288 C.3       1 ACP         0.0815
     16 O4'        -1.1285    0.2356    2.5840 O.3       1 ACP        -0.4127
     17 C3'         1.0324    0.7610    1.7344 C.3       1 ACP         0.0890
     18 O3'         1.9175    0.2377    2.7247 O.3       1 ACP        -0.6221
     19 C2'         0.4468   -0.3802    0.9263 C.3       1 ACP         0.1067
     20 O2'         1.3993   -1.3703    0.5961 O.3       1 ACP        -0.6053
     21 C1'        -0.6159   -0.9100    1.8769 C.3       1 ACP         0.4223
     22 N9         -1.7127   -1.6108    1.2130 N.pl3     1 ACP        -0.6834
     23 C8         -2.8641   -1.0399    0.7392 C.ar      1 ACP         0.5614
     24 N7         -3.6659   -1.9257    0.1858 N.2       1 ACP        -0.5751
     25 C5         -3.0053   -3.1223    0.3069 C.ar      1 ACP        -0.2117
     26 C6         -3.3321   -4.4178   -0.0813 C.ar      1 ACP         0.7177
     27 N6         -4.5476   -4.6866   -0.7335 N.pl3     1 ACP        -0.9401
     28 N1         -2.4608   -5.4225    0.1773 N.ar      1 ACP        -0.8008
     29 C2         -1.3053   -5.1020    0.8081 C.ar      1 ACP         0.6565
     30 N3         -0.8788   -3.8921    1.2315 N.ar      1 ACP        -0.7061
     31 C4         -1.7870   -2.9477    0.9438 C.ar      1 ACP         0.5715
     32 HOG3       -2.9875    9.1157    5.7982 H         1 ACP         0.4226
     33 HOB2        2.2052    5.9796    3.1111 H         1 ACP         0.4482
     34 H3B1       -0.3597    6.4373    6.0287 H         1 ACP         0.1012
     35 H3B2       -1.7688    5.7929    5.1912 H         1 ACP         0.1012
     36 H5'1       -1.4802    1.9928    0.8147 H         1 ACP         0.0481
     37 H5'2       -0.1369    3.1042    1.1873 H         1 ACP         0.0481
     38 H4'         0.0403    1.7078    3.4343 H         1 ACP         0.0904
     39 H3'         1.5906    1.4859    1.1353 H         1 ACP         0.0809
     40 HO3'        2.6839   -0.1150    2.2479 H         1 ACP         0.4528
     41 H2'        -0.0017    0.0018    0.0005 H         1 ACP         0.0594
     42 HO2'        0.9369   -2.0558    0.0825 H         1 ACP         0.4344
     43 H1'        -0.1998   -1.6319    2.6178 H         1 ACP         0.1127
     44 H8         -3.0609    0.0200    0.8250 H         1 ACP         0.1050
     45 HN61       -5.2046   -3.9433   -0.8775 H         1 ACP         0.4211
     46 HN62       -4.7849   -5.6332   -0.9625 H         1 ACP         0.4211
     47 H2         -0.6318   -5.9307    0.9993 H         1 ACP         0.0375
@<TRIPOS>BOND
     1    1    2 2
     2    1    3 1
     3    1    4 1
     4    1    8 1
     5    4   32 1
     6    5    6 2
     7    5    7 1
     8    5    8 1
     9    5   12 1
    10    7   33 1
    11    8   34 1
    12    8   35 1
    13    9   10 2
    14    9   11 1
    15    9   12 1
    16    9   13 1
    17   13   14 1
    18   14   15 1
    19   14   36 1
    20   14   37 1
    21   15   16 1
    22   15   17 1
    23   15   38 1
    24   16   21 1
    25   17   18 1
    26   17   19 1
    27   17   39 1
    28   18   40 1
    29   19   20 1
    30   19   21 1
    31   19   41 1
    32   20   42 1
    33   21   22 1
    34   21   43 1
    35   22   23 ar
    36   22   31 ar
    37   23   24 ar
    38   23   44 1
    39   24   25 ar
    40   25   26 ar
    41   25   31 ar
    42   26   27 1
    43   26   28 ar
    44   27   45 1
    45   27   46 1
    46   28   29 ar
    47   29   30 ar
    48   29   47 1
    49   30   31 ar
@<TRIPOS>SUBSTRUCTURE
     1 ACP         1 GROUP 0 A     ****
@<TRIPOS>MOLECULE
[[[5-(6-aminopurin-9-yl)-3,4-dihydroxy-tetrahydrofuran-2-yl]methoxy-oxido-phosphoryl]oxy-hydroxy-phosphoryl]methyl-hydroxy-phosphinate
   47    49     1     0     0
SMALL
USER_CHARGES

@<TRIPOS>ATOM
      1 PG          4.3721    5.1233    4.8025 P.3       1 ACP         1.3516
      2 O1G         3.7625    4.8588    6.1596 O.co2     1 ACP        -0.8379
      3 O2G         3.5900    4.9550    3.5204 O.co2     1 ACP        -0.8379
      4 O3G         5.0937    6.5859    4.8085 O.3       1 ACP        -0.7980
      5 PB          6.9576    4.0563    3.2116 P.3       1 ACP         1.7688
      6 O1B         8.1384    3.1372    3.3067 O.2       1 ACP        -0.9167
      7 O2B         7.3257    5.6134    2.9842 O.3       1 ACP        -0.8201
      8 C3B         5.8904    4.0765    4.6678 C.3       1 ACP        -0.6097
      9 PA          6.0981    3.6803    0.4053 P.3       1 ACP         1.5979
     10 O1A         6.9910    2.5052    0.0710 O.co2     1 ACP        -0.8617
     11 O2A         6.4244    5.0681   -0.1019 O.co2     1 ACP        -0.8617
     12 O3A         5.9102    3.7366    2.0255 O.3       1 ACP        -0.8283
     13 O5'         4.5669    3.2940   -0.0211 O.3       1 ACP        -0.5783
     14 C5'         4.0922    1.9801    0.2227 C.3       1 ACP         0.1980
     15 C4'         2.5944    2.0310    0.4653 C.3       1 ACP         0.0815
     16 O4'         1.9327    2.5740   -0.6889 O.3       1 ACP        -0.4127
     17 C3'         1.9685    0.6634    0.6767 C.3       1 ACP         0.0890
     18 O3'         2.1425    0.1975    1.9977 O.3       1 ACP        -0.6221
     19 C2'         0.5176    0.9128    0.3099 C.3       1 ACP         0.1067
     20 O2'        -0.2103    1.4454    1.4152 O.3       1 ACP        -0.6053
     21 C1'         0.6219    1.9765   -0.7844 C.3       1 ACP         0.4223
     22 N9          0.4237    1.4496   -2.1357 N.pl3     1 ACP        -0.6834
     23 C8          1.4026    0.9717   -2.9660 C.ar      1 ACP         0.5614
     24 N7          0.9183    0.5619   -4.1197 N.2       1 ACP        -0.5751
     25 C5         -0.4330    0.7845   -4.0331 C.ar      1 ACP        -0.2117
     26 C6         -1.4794    0.5615   -4.9225 C.ar      1 ACP         0.7177
     27 N6         -1.2378    0.0044   -6.1899 N.pl3     1 ACP        -0.9401
     28 N1         -2.7406    0.8885   -4.5512 N.ar      1 ACP        -0.8008
     29 C2         -2.9113    1.4216   -3.3172 C.ar      1 ACP         0.6565
     30 N3         -1.9824    1.6843   -2.3721 N.ar      1 ACP        -0.7061
     31 C4         -0.7613    1.3370   -2.8054 C.ar      1 ACP         0.5715
     32 HOG3        4.5453    7.3773    4.9962 H         1 ACP         0.4226
     33 HOB2        7.8309    5.8700    2.1836 H         1 ACP         0.4482
     34 H3B1        6.5134    4.3350    5.5316 H         1 ACP         0.1012
     35 H3B2        5.5404    3.0501    4.8211 H         1 ACP         0.1012
     36 H5'1        4.3180    1.3550   -0.6470 H         1 ACP         0.0481
     37 H5'2        4.6085    1.5739    1.0983 H         1 ACP         0.0481
     38 H4'         2.3751    2.7029    1.3156 H         1 ACP         0.0904
     39 H3'         2.4336   -0.1217   -0.0015 H         1 ACP         0.0809
     40 HO3'        1.7160   -0.6716    2.0397 H         1 ACP         0.4528
     41 H2'         0.0316    0.0155   -0.0339 H         1 ACP         0.0594
     42 HO2'       -0.1608    0.7921    2.1351 H         1 ACP         0.4344
     43 H1'        -0.1474    2.7798   -0.6651 H         1 ACP         0.1127
     44 H8          2.4442    0.9470   -2.6763 H         1 ACP         0.1050
     45 HN61       -0.2955   -0.1901   -6.4713 H         1 ACP         0.4211
     46 HN62       -1.9987   -0.1045   -6.8334 H         1 ACP         0.4211
     47 H2         -3.9335    1.6716   -3.0534 H         1 ACP         0.0375
@<TRIPOS>BOND
     1    1    2 2
     2    1    3 1
     3    1    4 1
     4    1    8 1
     5    4   32 1
     6    5    6 2
     7    5    7 1
     8    5    8 1
     9    5   12 1
    10    7   33 1
    11    8   34 1
    12    8   35 1
    13    9   10 2
    14    9   11 1
    15    9   12 1
    16    9   13 1
    17   13   14 1
    18   14   15 1
    19   14   36 1
    20   14   37 1
    21   15   16 1
    22   15   17 1
    23   15   38 1
    24   16   21 1
    25   17   18 1
    26   17   19 1
    27   17   39 1
    28   18   40 1
    29   19   20 1
    30   19   21 1
    31   19   41 1
    32   20   42 1
    33   21   22 1
    34   21   43 1
    35   22   23 ar
    36   22   31 ar
    37   23   24 ar
    38   23   44 1
    39   24   25 ar
    40   25   26 ar
    41   25   31 ar
    42   26   27 1
    43   26   28 ar
    44   27   45 1
    45   27   46 1
    46   28   29 ar
    47   29   30 ar
    48   29   47 1
    49   30   31 ar
@<TRIPOS>SUBSTRUCTURE
     1 ACP         1 GROUP 0 A     ****
@<TRIPOS>MOLECULE
[[[5-(6-aminopurin-9-yl)-3,4-dihydroxy-tetrahydrofuran-2-yl]methoxy-oxido-phosphoryl]oxy-hydroxy-phosphoryl]methyl-hydroxy-phosphinate
   47    49     1     0     0
SMALL
USER_CHARGES

@<TRIPOS>ATOM
      1 PG         -4.0999    7.7671    2.4880 P.3       1 ACP         1.3516
      2 O1G        -5.6104    7.8060    2.5080 O.co2     1 ACP        -0.8379
      3 O2G        -3.2639    9.0071    2.2711 O.co2     1 ACP        -0.8379
      4 O3G        -3.5609    6.9749    3.8079 O.3       1 ACP        -0.7980
      5 PB         -1.8779    6.1374    0.8265 P.3       1 ACP         1.7688
      6 O1B        -1.0588    7.2966    0.3434 O.2       1 ACP        -0.9167
      7 O2B        -1.9875    4.9039   -0.2119 O.3       1 ACP        -0.8201
      8 C3B        -3.5983    6.5289    1.2096 C.3       1 ACP        -0.6097
      9 PA          0.0332    4.7085    2.5761 P.3       1 ACP         1.5979
     10 O1A        -0.1161    4.0779    3.9435 O.co2     1 ACP        -0.8617
     11 O2A         1.1770    5.6544    2.2817 O.co2     1 ACP        -0.8617
     12 O3A        -1.3743    5.4401    2.1925 O.3       1 ACP        -0.8283
     13 O5'         0.0181    3.5132    1.4596 O.3       1 ACP        -0.5783
     14 C5'        -0.8811    2.4285    1.6206 C.3       1 ACP         0.1980
     15 C4'        -0.1994    1.3333    2.4288 C.3       1 ACP         0.0815
     16 O4'        -1.1285    0.2356    2.5840 O.3       1 ACP        -0.4127
     17 C3'         1.0324    0.7610    1.7344 C.3       1 ACP         0.0890
     18 O3'         1.9175    0.2377    2.7247 O.3       1 ACP        -0.6221
     19 C2'         0.4468   -0.3802    0.9263 C.3       1 ACP         0.1067
     20 O2'         1.3993   -1.3703    0.5961 O.3       1 ACP        -0.6053
     21 C1'        -0.6159   -0.9100    1.8769 C.3       1 ACP         0.4223
     22 N9         -1.7127   -1.6108    1.2130 N.pl3     1 ACP        -0.6834
     23 C8         -2.8641   -1.0399    0.7392 C.ar      1 ACP         0.5614
     24 N7         -3.6659   -1.9257    0.1858 N.2       1 ACP        -0.5751
     25 C5         -3.0053   -3.1223    0.3069 C.ar      1 ACP        -0.2117
     26 C6         -3.3321   -4.4178   -0.0813 C.ar      1 ACP         0.7177
     27 N6         -4.5476   -4.6866   -0.7335 N.pl3     1 ACP        -0.9401
     28 N1         -2.4608   -5.4225    0.1773 N.ar      1 ACP        -0.8008
     29 C2         -1.3053   -5.1020    0.8081 C.ar      1 ACP         0.6565
     30 N3         -0.8788   -3.8921    1.2315 N.ar      1 ACP        -0.7061
     31 C4         -1.7870   -2.9477    0.9438 C.ar      1 ACP         0.5715
     32 HOG3       -3.7915    7.3295    4.6929 H         1 ACP         0.4226
     33 HOB2       -1.1666    4.4499   -0.4985 H         1 ACP         0.4482
     34 H3B1       -4.0982    5.5928    1.4828 H         1 ACP         0.1012
     35 H3B2       -4.0602    6.8794    0.2804 H         1 ACP         0.1012
     36 H5'1       -1.7769    2.7851    2.1387 H         1 ACP         0.0481
     37 H5'2       -1.1653    2.0543    0.6320 H         1 ACP         0.0481
     38 H4'         0.0403    1.7078    3.4343 H         1 ACP         0.0904
     39 H3'         1.5906    1.4859    1.1353 H         1 ACP         0.0809
     40 HO3'        2.6839   -0.1150    2.2479 H         1 ACP         0.4528
     41 H2'        -0.0017    0.0018    0.0005 H         1 ACP         0.0594
     42 HO2'        2.0953   -0.9375    0.0709 H         1 ACP         0.4344
     43 H1'        -0.1998   -1.6319    2.6178 H         1 ACP         0.1127
     44 H8         -3.0609    0.0200    0.8250 H         1 ACP         0.1050
     45 HN61       -5.2046   -3.9433   -0.8775 H         1 ACP         0.4211
     46 HN62       -4.7849   -5.6332   -0.9625 H         1 ACP         0.4211
     47 H2         -0.6318   -5.9307    0.9993 H         1 ACP         0.0375
@<TRIPOS>BOND
     1    1    2 2
     2    1    3 1
     3    1    4 1
     4    1    8 1
     5    4   32 1
     6    5    6 2
     7    5    7 1
     8    5    8 1
     9    5   12 1
    10    7   33 1
    11    8   34 1
    12    8   35 1
    13    9   10 2
    14    9   11 1
    15    9   12 1
    16    9   13 1
    17   13   14 1
    18   14   15 1
    19   14   36 1
    20   14   37 1
    21   15   16 1
    22   15   17 1
    23   15   38 1
    24   16   21 1
    25   17   18 1
    26   17   19 1
    27   17   39 1
    28   18   40 1
    29   19   20 1
    30   19   21 1
    31   19   41 1
    32   20   42 1
    33   21   22 1
    34   21   43 1
    35   22   23 ar
    36   22   31 ar
    37   23   24 ar
    38   23   44 1
    39   24   25 ar
    40   25   26 ar
    41   25   31 ar
    42   26   27 1
    43   26   28 ar
    44   27   45 1
    45   27   46 1
    46   28   29 ar
    47   29   30 ar
    48   29   47 1
    49   30   31 ar
@<TRIPOS>SUBSTRUCTURE
     1 ACP         1 GROUP 0 A     ****
@<TRIPOS>MOLECULE
[[[5-(6-aminopurin-9-yl)-3,4-dihydroxy-tetrahydrofuran-2-yl]methoxy-oxido-phosphoryl]oxy-hydroxy-phosphoryl]methyl-hydroxy-phosphinate
   47    49     1     0     0
SMALL
USER_CHARGES

@<TRIPOS>ATOM
      1 PG          5.7676   -3.2826   -0.4319 P.3       1 ACP         1.3516
      2 O1G         6.4053   -3.9853    0.7441 O.co2     1 ACP        -0.8379
      3 O2G         5.1503   -4.0389   -1.5855 O.co2     1 ACP        -0.8379
      4 O3G         4.7094   -2.1672    0.1123 O.3       1 ACP        -0.7980
      5 PB          7.7838   -0.7860   -0.1958 P.3       1 ACP         1.7688
      6 O1B         8.7866    0.0310   -0.9542 O.2       1 ACP        -0.9167
      7 O2B         8.3625   -1.5175    1.1239 O.3       1 ACP        -0.8201
      8 C3B         7.0314   -2.1311   -1.1361 C.3       1 ACP        -0.6097
      9 PA          6.3567    1.2769    1.3738 P.3       1 ACP         1.5979
     10 O1A         6.9560    2.4959    0.7069 O.co2     1 ACP        -0.8617
     11 O2A         6.8130    0.8461    2.7507 O.co2     1 ACP        -0.8617
     12 O3A         6.4917    0.0137    0.3492 O.3       1 ACP        -0.8283
     13 O5'         4.7294    1.4426    1.3699 O.3       1 ACP        -0.5783
     14 C5'         4.0922    1.9801    0.2227 C.3       1 ACP         0.1980
     15 C4'         2.5944    2.0310    0.4653 C.3       1 ACP         0.0815
     16 O4'         1.9327    2.5740   -0.6889 O.3       1 ACP        -0.4127
     17 C3'         1.9685    0.6634    0.6767 C.3       1 ACP         0.0890
     18 O3'         2.1425    0.1975    1.9977 O.3       1 ACP        -0.6221
     19 C2'         0.5176    0.9128    0.3099 C.3       1 ACP         0.1067
     20 O2'        -0.2103    1.4454    1.4152 O.3       1 ACP        -0.6053
     21 C1'         0.6219    1.9765   -0.7844 C.3       1 ACP         0.4223
     22 N9          0.4237    1.4496   -2.1357 N.pl3     1 ACP        -0.6834
     23 C8          1.4026    0.9717   -2.9660 C.ar      1 ACP         0.5614
     24 N7          0.9183    0.5619   -4.1197 N.2       1 ACP        -0.5751
     25 C5         -0.4330    0.7845   -4.0331 C.ar      1 ACP        -0.2117
     26 C6         -1.4794    0.5615   -4.9225 C.ar      1 ACP         0.7177
     27 N6         -1.2378    0.0044   -6.1899 N.pl3     1 ACP        -0.9401
     28 N1         -2.7406    0.8885   -4.5512 N.ar      1 ACP        -0.8008
     29 C2         -2.9113    1.4216   -3.3172 C.ar      1 ACP         0.6565
     30 N3         -1.9824    1.6843   -2.3721 N.ar      1 ACP        -0.7061
     31 C4         -0.7613    1.3370   -2.8054 C.ar      1 ACP         0.5715
     32 HOG3        3.9561   -2.4672    0.6644 H         1 ACP         0.4226
     33 HOB2        8.7432   -0.9692    1.8426 H         1 ACP         0.4482
     34 H3B1        7.8416   -2.7654   -1.5132 H         1 ACP         0.1012
     35 H3B2        6.5467   -1.6787   -2.0079 H         1 ACP         0.1012
     36 H5'1        4.4844    2.9853    0.0382 H         1 ACP         0.0481
     37 H5'2        4.3192    1.3445   -0.6390 H         1 ACP         0.0481
     38 H4'         2.3751    2.7029    1.3156 H         1 ACP         0.0904
     39 H3'         2.4336   -0.1217   -0.0015 H         1 ACP         0.0809
     40 HO3'        3.0987    0.1465    2.1461 H         1 ACP         0.4528
     41 H2'         0.0316    0.0155   -0.0339 H         1 ACP         0.0594
     42 HO2'       -1.1270    1.5823    1.1180 H         1 ACP         0.4344
     43 H1'        -0.1474    2.7798   -0.6651 H         1 ACP         0.1127
     44 H8          2.4442    0.9470   -2.6763 H         1 ACP         0.1050
     45 HN61       -0.2955   -0.1901   -6.4713 H         1 ACP         0.4211
     46 HN62       -1.9987   -0.1045   -6.8334 H         1 ACP         0.4211
     47 H2         -3.9335    1.6716   -3.0534 H         1 ACP         0.0375
@<TRIPOS>BOND
     1    1    2 2
     2    1    3 1
     3    1    4 1
     4    1    8 1
     5    4   32 1
     6    5    6 2
     7    5    7 1
     8    5    8 1
     9    5   12 1
    10    7   33 1
    11    8   34 1
    12    8   35 1
    13    9   10 2
    14    9   11 1
    15    9   12 1
    16    9   13 1
    17   13   14 1
    18   14   15 1
    19   14   36 1
    20   14   37 1
    21   15   16 1
    22   15   17 1
    23   15   38 1
    24   16   21 1
    25   17   18 1
    26   17   19 1
    27   17   39 1
    28   18   40 1
    29   19   20 1
    30   19   21 1
    31   19   41 1
    32   20   42 1
    33   21   22 1
    34   21   43 1
    35   22   23 ar
    36   22   31 ar
    37   23   24 ar
    38   23   44 1
    39   24   25 ar
    40   25   26 ar
    41   25   31 ar
    42   26   27 1
    43   26   28 ar
    44   27   45 1
    45   27   46 1
    46   28   29 ar
    47   29   30 ar
    48   29   47 1
    49   30   31 ar
@<TRIPOS>SUBSTRUCTURE
     1 ACP         1 GROUP 0 A     ****
@<TRIPOS>MOLECULE
[[[5-(6-aminopurin-9-yl)-3,4-dihydroxy-tetrahydrofuran-2-yl]methoxy-oxido-phosphoryl]oxy-hydroxy-phosphoryl]methyl-hydroxy-phosphinate
   47    49     1     0     0
SMALL
USER_CHARGES

@<TRIPOS>ATOM
      1 PG         -2.8486    4.2711    6.5090 P.3       1 ACP         1.3516
      2 O1G        -2.4464    5.5382    7.2273 O.co2     1 ACP        -0.8379
      3 O2G        -1.8375    3.2372    6.0699 O.co2     1 ACP        -0.8379
      4 O3G        -4.0489    3.5379    7.3346 O.3       1 ACP        -0.7980
      5 PB         -3.1494    5.8090    3.6985 P.3       1 ACP         1.7688
      6 O1B        -2.7023    7.1718    4.1355 O.2       1 ACP        -0.9167
      7 O2B        -4.3133    5.8032    2.5774 O.3       1 ACP        -0.8201
      8 C3B        -3.8173    4.7693    5.0149 C.3       1 ACP        -0.6097
      9 PA         -1.0482    5.0555    1.7562 P.3       1 ACP         1.5979
     10 O1A        -0.0937    6.1972    2.0304 O.co2     1 ACP        -0.8617
     11 O2A        -1.9069    5.0480    0.5103 O.co2     1 ACP        -0.8617
     12 O3A        -2.0059    4.8628    3.0636 O.3       1 ACP        -0.8283
     13 O5'        -0.2060    3.6558    1.8418 O.3       1 ACP        -0.5783
     14 C5'        -0.8811    2.4285    1.6206 C.3       1 ACP         0.1980
     15 C4'        -0.1994    1.3333    2.4288 C.3       1 ACP         0.0815
     16 O4'        -1.1285    0.2356    2.5840 O.3       1 ACP        -0.4127
     17 C3'         1.0324    0.7610    1.7344 C.3       1 ACP         0.0890
     18 O3'         1.9175    0.2377    2.7247 O.3       1 ACP        -0.6221
     19 C2'         0.4468   -0.3802    0.9263 C.3       1 ACP         0.1067
     20 O2'         1.3993   -1.3703    0.5961 O.3       1 ACP        -0.6053
     21 C1'        -0.6159   -0.9100    1.8769 C.3       1 ACP         0.4223
     22 N9         -1.7127   -1.6108    1.2130 N.pl3     1 ACP        -0.6834
     23 C8         -2.0877   -2.9101    1.4304 C.ar      1 ACP         0.5614
     24 N7         -3.1152   -3.2613    0.6857 N.2       1 ACP        -0.5751
     25 C5         -3.4186   -2.1409   -0.0462 C.ar      1 ACP        -0.2117
     26 C6         -4.3953   -1.8809   -1.0023 C.ar      1 ACP         0.7177
     27 N6         -5.3118   -2.8767   -1.3812 N.pl3     1 ACP        -0.9401
     28 N1         -4.4538   -0.6507   -1.5667 N.ar      1 ACP        -0.8008
     29 C2         -3.5442    0.2679   -1.1609 C.ar      1 ACP         0.6565
     30 N3         -2.5561    0.1361   -0.2491 N.ar      1 ACP        -0.7061
     31 C4         -2.5568   -1.1019    0.2674 C.ar      1 ACP         0.5715
     32 HOG3       -3.8780    3.2591    8.2595 H         1 ACP         0.4226
     33 HOB2       -4.1419    6.2331    1.7126 H         1 ACP         0.4482
     34 H3B1       -4.1663    3.8373    4.5562 H         1 ACP         0.1012
     35 H3B2       -4.7009    5.2825    5.4094 H         1 ACP         0.1012
     36 H5'1       -1.9255    2.5382    1.9294 H         1 ACP         0.0481
     37 H5'2       -0.8473    2.1933    0.5521 H         1 ACP         0.0481
     38 H4'         0.0403    1.7078    3.4343 H         1 ACP         0.0904
     39 H3'         1.5906    1.4859    1.1353 H         1 ACP         0.0809
     40 HO3'        2.1521    0.9800    3.3017 H         1 ACP         0.4528
     41 H2'        -0.0017    0.0018    0.0005 H         1 ACP         0.0594
     42 HO2'        1.7495   -1.7243    1.4324 H         1 ACP         0.4344
     43 H1'        -0.1998   -1.6319    2.6178 H         1 ACP         0.1127
     44 H8         -1.5778   -3.5473    2.1399 H         1 ACP         0.1050
     45 HN61       -5.2294   -3.7965   -0.9914 H         1 ACP         0.4211
     46 HN62       -5.9774   -2.6837   -2.1055 H         1 ACP         0.4211
     47 H2         -3.6201    1.2414   -1.6336 H         1 ACP         0.0375
@<TRIPOS>BOND
     1    1    2 2
     2    1    3 1
     3    1    4 1
     4    1    8 1
     5    4   32 1
     6    5    6 2
     7    5    7 1
     8    5    8 1
     9    5   12 1
    10    7   33 1
    11    8   34 1
    12    8   35 1
    13    9   10 2
    14    9   11 1
    15    9   12 1
    16    9   13 1
    17   13   14 1
    18   14   15 1
    19   14   36 1
    20   14   37 1
    21   15   16 1
    22   15   17 1
    23   15   38 1
    24   16   21 1
    25   17   18 1
    26   17   19 1
    27   17   39 1
    28   18   40 1
    29   19   20 1
    30   19   21 1
    31   19   41 1
    32   20   42 1
    33   21   22 1
    34   21   43 1
    35   22   23 ar
    36   22   31 ar
    37   23   24 ar
    38   23   44 1
    39   24   25 ar
    40   25   26 ar
    41   25   31 ar
    42   26   27 1
    43   26   28 ar
    44   27   45 1
    45   27   46 1
    46   28   29 ar
    47   29   30 ar
    48   29   47 1
    49   30   31 ar
@<TRIPOS>SUBSTRUCTURE
     1 ACP         1 GROUP 0 A     ****
@<TRIPOS>MOLECULE
[[[5-(6-aminopurin-9-yl)-3,4-dihydroxy-tetrahydrofuran-2-yl]methoxy-oxido-phosphoryl]oxy-hydroxy-phosphoryl]methyl-hydroxy-phosphinate
   47    49     1     0     0
SMALL
USER_CHARGES

@<TRIPOS>ATOM
      1 PG          7.0853    6.2021    0.0866 P.3       1 ACP         1.3516
      2 O1G         8.1170    7.2862   -0.1225 O.co2     1 ACP        -0.8379
      3 O2G         5.6009    6.4805    0.0345 O.co2     1 ACP        -0.8379
      4 O3G         7.4320    4.9316   -0.8754 O.3       1 ACP        -0.7980
      5 PB          6.4680    4.0506    2.3983 P.3       1 ACP         1.7688
      6 O1B         5.0187    4.3642    2.6204 O.2       1 ACP        -0.9167
      7 O2B         7.2814    3.6221    3.7274 O.3       1 ACP        -0.8201
      8 C3B         7.4442    5.4083    1.7176 C.3       1 ACP        -0.6097
      9 PA          6.3567    1.2769    1.3738 P.3       1 ACP         1.5979
     10 O1A         6.7670    0.6862    2.7051 O.co2     1 ACP        -0.8617
     11 O2A         6.7982    0.6375    0.0753 O.co2     1 ACP        -0.8617
     12 O3A         6.7784    2.8535    1.3607 O.3       1 ACP        -0.8283
     13 O5'         4.7294    1.4426    1.3699 O.3       1 ACP        -0.5783
     14 C5'         4.0922    1.9801    0.2227 C.3       1 ACP         0.1980
     15 C4'         2.5944    2.0310    0.4653 C.3       1 ACP         0.0815
     16 O4'         1.9327    2.5740   -0.6889 O.3       1 ACP        -0.4127
     17 C3'         1.9685    0.6634    0.6767 C.3       1 ACP         0.0890
     18 O3'         2.1425    0.1975    1.9977 O.3       1 ACP        -0.6221
     19 C2'         0.5176    0.9128    0.3099 C.3       1 ACP         0.1067
     20 O2'        -0.2103    1.4454    1.4152 O.3       1 ACP        -0.6053
     21 C1'         0.6219    1.9765   -0.7844 C.3       1 ACP         0.4223
     22 N9          0.4237    1.4496   -2.1357 N.pl3     1 ACP        -0.6834
     23 C8         -0.7736    1.3475   -2.7932 C.ar      1 ACP         0.5614
     24 N7         -0.6356    0.8373   -3.9991 N.2       1 ACP        -0.5751
     25 C5          0.7095    0.5981   -4.1281 C.ar      1 ACP        -0.2117
     26 C6          1.4733    0.0704   -5.1643 C.ar      1 ACP         0.7177
     27 N6          0.8693   -0.3355   -6.3666 N.pl3     1 ACP        -0.9401
     28 N1          2.8130   -0.0482   -5.0009 N.ar      1 ACP        -0.8008
     29 C2          3.3380    0.3602   -3.8204 C.ar      1 ACP         0.6565
     30 N3          2.7052    0.8841   -2.7480 N.ar      1 ACP        -0.7061
     31 C4          1.3867    0.9726   -2.9785 C.ar      1 ACP         0.5715
     32 HOG3        7.4554    5.0723   -1.8459 H         1 ACP         0.4226
     33 HOB2        6.9903    2.8303    4.2278 H         1 ACP         0.4482
     34 H3B1        8.4869    5.0745    1.6685 H         1 ACP         0.1012
     35 H3B2        7.4037    6.2262    2.4449 H         1 ACP         0.1012
     36 H5'1        4.4844    2.9853    0.0382 H         1 ACP         0.0481
     37 H5'2        4.3192    1.3445   -0.6390 H         1 ACP         0.0481
     38 H4'         2.3751    2.7029    1.3156 H         1 ACP         0.0904
     39 H3'         2.4336   -0.1217   -0.0015 H         1 ACP         0.0809
     40 HO3'        3.0987    0.1465    2.1461 H         1 ACP         0.4528
     41 H2'         0.0316    0.0155   -0.0339 H         1 ACP         0.0594
     42 HO2'       -0.1608    0.7921    2.1351 H         1 ACP         0.4344
     43 H1'        -0.1474    2.7798   -0.6651 H         1 ACP         0.1127
     44 H8         -1.7070    1.6599   -2.3451 H         1 ACP         0.1050
     45 HN61       -0.1277   -0.2866   -6.4583 H         1 ACP         0.4211
     46 HN62        1.4308   -0.7566   -7.0823 H         1 ACP         0.4211
     47 H2          4.4130    0.2505   -3.7241 H         1 ACP         0.0375
@<TRIPOS>BOND
     1    1    2 2
     2    1    3 1
     3    1    4 1
     4    1    8 1
     5    4   32 1
     6    5    6 2
     7    5    7 1
     8    5    8 1
     9    5   12 1
    10    7   33 1
    11    8   34 1
    12    8   35 1
    13    9   10 2
    14    9   11 1
    15    9   12 1
    16    9   13 1
    17   13   14 1
    18   14   15 1
    19   14   36 1
    20   14   37 1
    21   15   16 1
    22   15   17 1
    23   15   38 1
    24   16   21 1
    25   17   18 1
    26   17   19 1
    27   17   39 1
    28   18   40 1
    29   19   20 1
    30   19   21 1
    31   19   41 1
    32   20   42 1
    33   21   22 1
    34   21   43 1
    35   22   23 ar
    36   22   31 ar
    37   23   24 ar
    38   23   44 1
    39   24   25 ar
    40   25   26 ar
    41   25   31 ar
    42   26   27 1
    43   26   28 ar
    44   27   45 1
    45   27   46 1
    46   28   29 ar
    47   29   30 ar
    48   29   47 1
    49   30   31 ar
@<TRIPOS>SUBSTRUCTURE
     1 ACP         1 GROUP 0 A     ****
@<TRIPOS>MOLECULE
[[[5-(6-aminopurin-9-yl)-3,4-dihydroxy-tetrahydrofuran-2-yl]methoxy-oxido-phosphoryl]oxy-hydroxy-phosphoryl]methyl-hydroxy-phosphinate
   47    49     1     0     0
SMALL
USER_CHARGES

@<TRIPOS>ATOM
      1 PG         -0.8506    7.3490    0.0113 P.3       1 ACP         1.3516
      2 O1G        -1.1034    8.7881   -0.3740 O.co2     1 ACP        -0.8379
      3 O2G         0.4005    6.9171    0.7406 O.co2     1 ACP        -0.8379
      4 O3G        -2.1593    6.7571    0.7839 O.3       1 ACP        -0.7980
      5 PB         -0.7406    4.5467   -1.5665 P.3       1 ACP         1.7688
      6 O1B         0.6023    4.0733   -1.0969 O.2       1 ACP        -0.9167
      7 O2B        -1.1098    4.1421   -3.0869 O.3       1 ACP        -0.8201
      8 C3B        -0.9708    6.3371   -1.5317 C.3       1 ACP        -0.6097
      9 PA         -2.5572    2.5164   -0.4117 P.3       1 ACP         1.5979
     10 O1A        -2.7118    1.7917   -1.7311 O.co2     1 ACP        -0.8617
     11 O2A        -3.7101    2.5987    0.5649 O.co2     1 ACP        -0.8617
     12 O3A        -2.0088    4.0232   -0.7157 O.3       1 ACP        -0.8283
     13 O5'        -1.2434    1.9102    0.3513 O.3       1 ACP        -0.5783
     14 C5'        -0.8811    2.4285    1.6206 C.3       1 ACP         0.1980
     15 C4'        -0.1994    1.3333    2.4288 C.3       1 ACP         0.0815
     16 O4'        -1.1285    0.2356    2.5840 O.3       1 ACP        -0.4127
     17 C3'         1.0324    0.7610    1.7344 C.3       1 ACP         0.0890
     18 O3'         1.9175    0.2377    2.7247 O.3       1 ACP        -0.6221
     19 C2'         0.4468   -0.3802    0.9263 C.3       1 ACP         0.1067
     20 O2'         1.3993   -1.3703    0.5961 O.3       1 ACP        -0.6053
     21 C1'        -0.6159   -0.9100    1.8769 C.3       1 ACP         0.4223
     22 N9         -1.7127   -1.6108    1.2130 N.pl3     1 ACP        -0.6834
     23 C8         -2.8641   -1.0399    0.7392 C.ar      1 ACP         0.5614
     24 N7         -3.6659   -1.9257    0.1858 N.2       1 ACP        -0.5751
     25 C5         -3.0053   -3.1223    0.3069 C.ar      1 ACP        -0.2117
     26 C6         -3.3321   -4.4178   -0.0813 C.ar      1 ACP         0.7177
     27 N6         -4.5476   -4.6866   -0.7335 N.pl3     1 ACP        -0.9401
     28 N1         -2.4608   -5.4225    0.1773 N.ar      1 ACP        -0.8008
     29 C2         -1.3053   -5.1020    0.8081 C.ar      1 ACP         0.6565
     30 N3         -0.8788   -3.8921    1.2315 N.ar      1 ACP        -0.7061
     31 C4         -1.7870   -2.9477    0.9438 C.ar      1 ACP         0.5715
     32 HOG3       -2.4490    7.1922    1.6140 H         1 ACP         0.4226
     33 HOB2       -1.1476    3.1925   -3.3299 H         1 ACP         0.4482
     34 H3B1       -1.9567    6.5528   -1.9587 H         1 ACP         0.1012
     35 H3B2       -0.2267    6.7676   -2.2104 H         1 ACP         0.1012
     36 H5'1       -0.2034    3.2760    1.4766 H         1 ACP         0.0481
     37 H5'2       -1.7842    2.7761    2.1321 H         1 ACP         0.0481
     38 H4'         0.0403    1.7078    3.4343 H         1 ACP         0.0904
     39 H3'         1.5906    1.4859    1.1353 H         1 ACP         0.0809
     40 HO3'        2.6839   -0.1150    2.2479 H         1 ACP         0.4528
     41 H2'        -0.0017    0.0018    0.0005 H         1 ACP         0.0594
     42 HO2'        2.0953   -0.9375    0.0709 H         1 ACP         0.4344
     43 H1'        -0.1998   -1.6319    2.6178 H         1 ACP         0.1127
     44 H8         -3.0609    0.0200    0.8250 H         1 ACP         0.1050
     45 HN61       -5.2046   -3.9433   -0.8775 H         1 ACP         0.4211
     46 HN62       -4.7849   -5.6332   -0.9625 H         1 ACP         0.4211
     47 H2         -0.6318   -5.9307    0.9993 H         1 ACP         0.0375
@<TRIPOS>BOND
     1    1    2 2
     2    1    3 1
     3    1    4 1
     4    1    8 1
     5    4   32 1
     6    5    6 2
     7    5    7 1
     8    5    8 1
     9    5   12 1
    10    7   33 1
    11    8   34 1
    12    8   35 1
    13    9   10 2
    14    9   11 1
    15    9   12 1
    16    9   13 1
    17   13   14 1
    18   14   15 1
    19   14   36 1
    20   14   37 1
    21   15   16 1
    22   15   17 1
    23   15   38 1
    24   16   21 1
    25   17   18 1
    26   17   19 1
    27   17   39 1
    28   18   40 1
    29   19   20 1
    30   19   21 1
    31   19   41 1
    32   20   42 1
    33   21   22 1
    34   21   43 1
    35   22   23 ar
    36   22   31 ar
    37   23   24 ar
    38   23   44 1
    39   24   25 ar
    40   25   26 ar
    41   25   31 ar
    42   26   27 1
    43   26   28 ar
    44   27   45 1
    45   27   46 1
    46   28   29 ar
    47   29   30 ar
    48   29   47 1
    49   30   31 ar
@<TRIPOS>SUBSTRUCTURE
     1 ACP         1 GROUP 0 A     ****
@<TRIPOS>MOLECULE
[[[5-(6-aminopurin-9-yl)-3,4-dihydroxy-tetrahydrofuran-2-yl]methoxy-oxido-phosphoryl]oxy-hydroxy-phosphoryl]methyl-hydroxy-phosphinate
   47    49     1     0     0
SMALL
USER_CHARGES

@<TRIPOS>ATOM
      1 PG         -1.6647    7.2800   -1.0271 P.3       1 ACP         1.3516
      2 O1G        -2.3982    5.9657   -0.8936 O.co2     1 ACP        -0.8379
      3 O2G        -1.2019    7.8134   -2.3632 O.co2     1 ACP        -0.8379
      4 O3G        -2.4897    8.4436   -0.2361 O.3       1 ACP        -0.7980
      5 PB         -0.2947    6.9547    1.8662 P.3       1 ACP         1.7688
      6 O1B        -1.0652    8.0089    2.6031 O.2       1 ACP        -0.9167
      7 O2B         1.2464    6.7944    2.3254 O.3       1 ACP        -0.8201
      8 C3B        -0.1865    7.2002    0.0808 C.3       1 ACP        -0.6097
      9 PA         -1.1367    4.4810    3.2545 P.3       1 ACP         1.5979
     10 O1A        -2.2478    5.0798    4.0892 O.co2     1 ACP        -0.8617
     11 O2A         0.1952    4.1272    3.8795 O.co2     1 ACP        -0.8617
     12 O3A        -0.8797    5.4536    1.9694 O.3       1 ACP        -0.8283
     13 O5'        -1.7337    3.1724    2.4753 O.3       1 ACP        -0.5783
     14 C5'        -0.8811    2.4285    1.6206 C.3       1 ACP         0.1980
     15 C4'        -0.1994    1.3333    2.4288 C.3       1 ACP         0.0815
     16 O4'        -1.1285    0.2356    2.5840 O.3       1 ACP        -0.4127
     17 C3'         1.0324    0.7610    1.7344 C.3       1 ACP         0.0890
     18 O3'         1.9175    0.2377    2.7247 O.3       1 ACP        -0.6221
     19 C2'         0.4468   -0.3802    0.9263 C.3       1 ACP         0.1067
     20 O2'         1.3993   -1.3703    0.5961 O.3       1 ACP        -0.6053
     21 C1'        -0.6159   -0.9100    1.8769 C.3       1 ACP         0.4223
     22 N9         -1.7127   -1.6108    1.2130 N.pl3     1 ACP        -0.6834
     23 C8         -2.5476   -1.0844    0.2632 C.ar      1 ACP         0.5614
     24 N7         -3.4391   -1.9591   -0.1536 N.2       1 ACP        -0.5751
     25 C5         -3.1701   -3.1016    0.5574 C.ar      1 ACP        -0.2117
     26 C6         -3.7593   -4.3620    0.5656 C.ar      1 ACP         0.7177
     27 N6         -4.8512   -4.6493   -0.2712 N.pl3     1 ACP        -0.9401
     28 N1         -3.2659   -5.3144    1.3932 N.ar      1 ACP        -0.8008
     29 C2         -2.2122   -4.9785    2.1759 C.ar      1 ACP         0.6565
     30 N3         -1.5595   -3.7985    2.2572 N.ar      1 ACP        -0.7061
     31 C4         -2.0986   -2.9054    1.4140 C.ar      1 ACP         0.5715
     32 HOG3       -3.4088    8.6391   -0.5177 H         1 ACP         0.4226
     33 HOB2        1.4423    6.5566    3.2567 H         1 ACP         0.4482
     34 H3B1        0.4526    6.4075   -0.3245 H         1 ACP         0.1012
     35 H3B2        0.3383    8.1480   -0.0796 H         1 ACP         0.1012
     36 H5'1       -1.4802    1.9928    0.8147 H         1 ACP         0.0481
     37 H5'2       -0.1369    3.1042    1.1873 H         1 ACP         0.0481
     38 H4'         0.0403    1.7078    3.4343 H         1 ACP         0.0904
     39 H3'         1.5906    1.4859    1.1353 H         1 ACP         0.0809
     40 HO3'        2.1521    0.9800    3.3017 H         1 ACP         0.4528
     41 H2'        -0.0017    0.0018    0.0005 H         1 ACP         0.0594
     42 HO2'        0.9369   -2.0558    0.0825 H         1 ACP         0.4344
     43 H1'        -0.1998   -1.6319    2.6178 H         1 ACP         0.1127
     44 H8         -2.4576   -0.0639   -0.0831 H         1 ACP         0.1050
     45 HN61       -5.2371   -3.9234   -0.8448 H         1 ACP         0.4211
     46 HN62       -5.2909   -5.5485   -0.2160 H         1 ACP         0.4211
     47 H2         -1.8433   -5.7650    2.8259 H         1 ACP         0.0375
@<TRIPOS>BOND
     1    1    2 2
     2    1    3 1
     3    1    4 1
     4    1    8 1
     5    4   32 1
     6    5    6 2
     7    5    7 1
     8    5    8 1
     9    5   12 1
    10    7   33 1
    11    8   34 1
    12    8   35 1
    13    9   10 2
    14    9   11 1
    15    9   12 1
    16    9   13 1
    17   13   14 1
    18   14   15 1
    19   14   36 1
    20   14   37 1
    21   15   16 1
    22   15   17 1
    23   15   38 1
    24   16   21 1
    25   17   18 1
    26   17   19 1
    27   17   39 1
    28   18   40 1
    29   19   20 1
    30   19   21 1
    31   19   41 1
    32   20   42 1
    33   21   22 1
    34   21   43 1
    35   22   23 ar
    36   22   31 ar
    37   23   24 ar
    38   23   44 1
    39   24   25 ar
    40   25   26 ar
    41   25   31 ar
    42   26   27 1
    43   26   28 ar
    44   27   45 1
    45   27   46 1
    46   28   29 ar
    47   29   30 ar
    48   29   47 1
    49   30   31 ar
@<TRIPOS>SUBSTRUCTURE
     1 ACP         1 GROUP 0 A     ****
@<TRIPOS>MOLECULE
[[[5-(6-aminopurin-9-yl)-3,4-dihydroxy-tetrahydrofuran-2-yl]methoxy-oxido-phosphoryl]oxy-hydroxy-phosphoryl]methyl-hydroxy-phosphinate
   47    49     1     0     0
SMALL
USER_CHARGES

@<TRIPOS>ATOM
      1 PG          7.3014    1.5661    4.3010 P.3       1 ACP         1.3516
      2 O1G         8.2619    0.4512    3.9578 O.co2     1 ACP        -0.8379
      3 O2G         5.8299    1.4954    3.9643 O.co2     1 ACP        -0.8379
      4 O3G         7.4787    1.9697    5.8713 O.3       1 ACP        -0.7980
      5 PB          8.2430    3.3256    1.7767 P.3       1 ACP         1.7688
      6 O1B         9.2095    2.3535    1.1692 O.2       1 ACP        -0.9167
      7 O2B         8.6623    4.8797    1.6329 O.3       1 ACP        -0.8201
      8 C3B         7.9687    3.1181    3.5492 C.3       1 ACP        -0.6097
      9 PA          6.1595    3.5245   -0.3149 P.3       1 ACP         1.5979
     10 O1A         6.6440    2.3951   -1.1979 O.co2     1 ACP        -0.8617
     11 O2A         6.3928    4.9672   -0.7072 O.co2     1 ACP        -0.8617
     12 O3A         6.7392    3.2823    1.1914 O.3       1 ACP        -0.8283
     13 O5'         4.5669    3.2940   -0.0211 O.3       1 ACP        -0.5783
     14 C5'         4.0922    1.9801    0.2227 C.3       1 ACP         0.1980
     15 C4'         2.5944    2.0310    0.4653 C.3       1 ACP         0.0815
     16 O4'         1.9327    2.5740   -0.6889 O.3       1 ACP        -0.4127
     17 C3'         1.9685    0.6634    0.6767 C.3       1 ACP         0.0890
     18 O3'         2.1425    0.1975    1.9977 O.3       1 ACP        -0.6221
     19 C2'         0.5176    0.9128    0.3099 C.3       1 ACP         0.1067
     20 O2'        -0.2103    1.4454    1.4152 O.3       1 ACP        -0.6053
     21 C1'         0.6219    1.9765   -0.7844 C.3       1 ACP         0.4223
     22 N9          0.4237    1.4496   -2.1357 N.pl3     1 ACP        -0.6834
     23 C8          1.4026    0.9717   -2.9660 C.ar      1 ACP         0.5614
     24 N7          0.9183    0.5619   -4.1197 N.2       1 ACP        -0.5751
     25 C5         -0.4330    0.7845   -4.0331 C.ar      1 ACP        -0.2117
     26 C6         -1.4794    0.5615   -4.9225 C.ar      1 ACP         0.7177
     27 N6         -1.2378    0.0044   -6.1899 N.pl3     1 ACP        -0.9401
     28 N1         -2.7406    0.8885   -4.5512 N.ar      1 ACP        -0.8008
     29 C2         -2.9113    1.4216   -3.3172 C.ar      1 ACP         0.6565
     30 N3         -1.9824    1.6843   -2.3721 N.ar      1 ACP        -0.7061
     31 C4         -0.7613    1.3370   -2.8054 C.ar      1 ACP         0.5715
     32 HOG3        7.3186    1.2817    6.5520 H         1 ACP         0.4226
     33 HOB2        8.7755    5.2601    0.7359 H         1 ACP         0.4482
     34 H3B1        7.3028    3.9239    3.8779 H         1 ACP         0.1012
     35 H3B2        8.9334    3.2787    4.0422 H         1 ACP         0.1012
     36 H5'1        4.3180    1.3550   -0.6470 H         1 ACP         0.0481
     37 H5'2        4.6085    1.5739    1.0983 H         1 ACP         0.0481
     38 H4'         2.3751    2.7029    1.3156 H         1 ACP         0.0904
     39 H3'         2.4336   -0.1217   -0.0015 H         1 ACP         0.0809
     40 HO3'        1.7160   -0.6716    2.0397 H         1 ACP         0.4528
     41 H2'         0.0316    0.0155   -0.0339 H         1 ACP         0.0594
     42 HO2'       -0.1608    0.7921    2.1351 H         1 ACP         0.4344
     43 H1'        -0.1474    2.7798   -0.6651 H         1 ACP         0.1127
     44 H8          2.4442    0.9470   -2.6763 H         1 ACP         0.1050
     45 HN61       -0.2955   -0.1901   -6.4713 H         1 ACP         0.4211
     46 HN62       -1.9987   -0.1045   -6.8334 H         1 ACP         0.4211
     47 H2         -3.9335    1.6716   -3.0534 H         1 ACP         0.0375
@<TRIPOS>BOND
     1    1    2 2
     2    1    3 1
     3    1    4 1
     4    1    8 1
     5    4   32 1
     6    5    6 2
     7    5    7 1
     8    5    8 1
     9    5   12 1
    10    7   33 1
    11    8   34 1
    12    8   35 1
    13    9   10 2
    14    9   11 1
    15    9   12 1
    16    9   13 1
    17   13   14 1
    18   14   15 1
    19   14   36 1
    20   14   37 1
    21   15   16 1
    22   15   17 1
    23   15   38 1
    24   16   21 1
    25   17   18 1
    26   17   19 1
    27   17   39 1
    28   18   40 1
    29   19   20 1
    30   19   21 1
    31   19   41 1
    32   20   42 1
    33   21   22 1
    34   21   43 1
    35   22   23 ar
    36   22   31 ar
    37   23   24 ar
    38   23   44 1
    39   24   25 ar
    40   25   26 ar
    41   25   31 ar
    42   26   27 1
    43   26   28 ar
    44   27   45 1
    45   27   46 1
    46   28   29 ar
    47   29   30 ar
    48   29   47 1
    49   30   31 ar
@<TRIPOS>SUBSTRUCTURE
     1 ACP         1 GROUP 0 A     ****
@<TRIPOS>MOLECULE
[[[5-(6-aminopurin-9-yl)-3,4-dihydroxy-tetrahydrofuran-2-yl]methoxy-oxido-phosphoryl]oxy-hydroxy-phosphoryl]methyl-hydroxy-phosphinate
   47    49     1     0     0
SMALL
USER_CHARGES

@<TRIPOS>ATOM
      1 PG          6.4046    5.9888   -2.1620 P.3       1 ACP         1.3516
      2 O1G         5.2632    5.4688   -1.3193 O.co2     1 ACP        -0.8379
      3 O2G         6.2902    7.2518   -2.9839 O.co2     1 ACP        -0.8379
      4 O3G         7.7605    6.0523   -1.2578 O.3       1 ACP        -0.7980
      5 PB          7.5015    3.0187   -2.7357 P.3       1 ACP         1.7688
      6 O1B         8.7382    3.0649   -1.8892 O.2       1 ACP        -0.9167
      7 O2B         7.6417    2.1575   -4.0960 O.3       1 ACP        -0.8201
      8 C3B         6.9094    4.6263   -3.3056 C.3       1 ACP        -0.6097
      9 PA          5.8980    0.9306   -1.3851 P.3       1 ACP         1.5979
     10 O1A         6.7587    0.7749   -0.1503 O.co2     1 ACP        -0.8617
     11 O2A         5.9322   -0.1059   -2.4870 O.co2     1 ACP        -0.8617
     12 O3A         6.1874    2.4018   -2.0295 O.3       1 ACP        -0.8283
     13 O5'         4.3515    1.1573   -0.9028 O.3       1 ACP        -0.5783
     14 C5'         4.0922    1.9801    0.2227 C.3       1 ACP         0.1980
     15 C4'         2.5944    2.0310    0.4653 C.3       1 ACP         0.0815
     16 O4'         1.9327    2.5740   -0.6889 O.3       1 ACP        -0.4127
     17 C3'         1.9685    0.6634    0.6767 C.3       1 ACP         0.0890
     18 O3'         2.1425    0.1975    1.9977 O.3       1 ACP        -0.6221
     19 C2'         0.5176    0.9128    0.3099 C.3       1 ACP         0.1067
     20 O2'        -0.2103    1.4454    1.4152 O.3       1 ACP        -0.6053
     21 C1'         0.6219    1.9765   -0.7844 C.3       1 ACP         0.4223
     22 N9          0.4237    1.4496   -2.1357 N.pl3     1 ACP        -0.6834
     23 C8          1.4026    0.9717   -2.9660 C.ar      1 ACP         0.5614
     24 N7          0.9183    0.5619   -4.1197 N.2       1 ACP        -0.5751
     25 C5         -0.4330    0.7845   -4.0331 C.ar      1 ACP        -0.2117
     26 C6         -1.4794    0.5615   -4.9225 C.ar      1 ACP         0.7177
     27 N6         -1.2378    0.0044   -6.1899 N.pl3     1 ACP        -0.9401
     28 N1         -2.7406    0.8885   -4.5512 N.ar      1 ACP        -0.8008
     29 C2         -2.9113    1.4216   -3.3172 C.ar      1 ACP         0.6565
     30 N3         -1.9824    1.6843   -2.3721 N.ar      1 ACP        -0.7061
     31 C4         -0.7613    1.3370   -2.8054 C.ar      1 ACP         0.5715
     32 HOG3        7.7621    6.6177   -0.4562 H         1 ACP         0.4226
     33 HOB2        7.8650    1.2044   -4.0339 H         1 ACP         0.4482
     34 H3B1        6.0504    4.4491   -3.9626 H         1 ACP         0.1012
     35 H3B2        7.7031    5.0572   -3.9253 H         1 ACP         0.1012
     36 H5'1        4.6070    1.5616    1.0933 H         1 ACP         0.0481
     37 H5'2        4.4825    2.9835    0.0252 H         1 ACP         0.0481
     38 H4'         2.3751    2.7029    1.3156 H         1 ACP         0.0904
     39 H3'         2.4336   -0.1217   -0.0015 H         1 ACP         0.0809
     40 HO3'        1.7160   -0.6716    2.0397 H         1 ACP         0.4528
     41 H2'         0.0316    0.0155   -0.0339 H         1 ACP         0.0594
     42 HO2'       -0.1608    0.7921    2.1351 H         1 ACP         0.4344
     43 H1'        -0.1474    2.7798   -0.6651 H         1 ACP         0.1127
     44 H8          2.4442    0.9470   -2.6763 H         1 ACP         0.1050
     45 HN61       -0.2955   -0.1901   -6.4713 H         1 ACP         0.4211
     46 HN62       -1.9987   -0.1045   -6.8334 H         1 ACP         0.4211
     47 H2         -3.9335    1.6716   -3.0534 H         1 ACP         0.0375
@<TRIPOS>BOND
     1    1    2 2
     2    1    3 1
     3    1    4 1
     4    1    8 1
     5    4   32 1
     6    5    6 2
     7    5    7 1
     8    5    8 1
     9    5   12 1
    10    7   33 1
    11    8   34 1
    12    8   35 1
    13    9   10 2
    14    9   11 1
    15    9   12 1
    16    9   13 1
    17   13   14 1
    18   14   15 1
    19   14   36 1
    20   14   37 1
    21   15   16 1
    22   15   17 1
    23   15   38 1
    24   16   21 1
    25   17   18 1
    26   17   19 1
    27   17   39 1
    28   18   40 1
    29   19   20 1
    30   19   21 1
    31   19   41 1
    32   20   42 1
    33   21   22 1
    34   21   43 1
    35   22   23 ar
    36   22   31 ar
    37   23   24 ar
    38   23   44 1
    39   24   25 ar
    40   25   26 ar
    41   25   31 ar
    42   26   27 1
    43   26   28 ar
    44   27   45 1
    45   27   46 1
    46   28   29 ar
    47   29   30 ar
    48   29   47 1
    49   30   31 ar
@<TRIPOS>SUBSTRUCTURE
     1 ACP         1 GROUP 0 A     ****
@<TRIPOS>MOLECULE
[[[5-(6-aminopurin-9-yl)-3,4-dihydroxy-tetrahydrofuran-2-yl]methoxy-oxido-phosphoryl]oxy-hydroxy-phosphoryl]methyl-hydroxy-phosphinate
   47    49     1     0     0
SMALL
USER_CHARGES

@<TRIPOS>ATOM
      1 PG          7.3014    1.5661    4.3010 P.3       1 ACP         1.3516
      2 O1G         7.2199    1.7885    5.7934 O.co2     1 ACP        -0.8379
      3 O2G         8.0613    0.4071    3.6985 O.co2     1 ACP        -0.8379
      4 O3G         5.8017    1.6206    3.6624 O.3       1 ACP        -0.7980
      5 PB          8.2430    3.3256    1.7767 P.3       1 ACP         1.7688
      6 O1B         9.2095    2.3535    1.1692 O.2       1 ACP        -0.9167
      7 O2B         8.6623    4.8797    1.6329 O.3       1 ACP        -0.8201
      8 C3B         7.9687    3.1181    3.5492 C.3       1 ACP        -0.6097
      9 PA          6.1595    3.5245   -0.3149 P.3       1 ACP         1.5979
     10 O1A         6.6440    2.3951   -1.1979 O.co2     1 ACP        -0.8617
     11 O2A         6.3928    4.9672   -0.7072 O.co2     1 ACP        -0.8617
     12 O3A         6.7392    3.2823    1.1914 O.3       1 ACP        -0.8283
     13 O5'         4.5669    3.2940   -0.0211 O.3       1 ACP        -0.5783
     14 C5'         4.0922    1.9801    0.2227 C.3       1 ACP         0.1980
     15 C4'         2.5944    2.0310    0.4653 C.3       1 ACP         0.0815
     16 O4'         1.9327    2.5740   -0.6889 O.3       1 ACP        -0.4127
     17 C3'         1.9685    0.6634    0.6767 C.3       1 ACP         0.0890
     18 O3'         2.1425    0.1975    1.9977 O.3       1 ACP        -0.6221
     19 C2'         0.5176    0.9128    0.3099 C.3       1 ACP         0.1067
     20 O2'        -0.2103    1.4454    1.4152 O.3       1 ACP        -0.6053
     21 C1'         0.6219    1.9765   -0.7844 C.3       1 ACP         0.4223
     22 N9          0.4237    1.4496   -2.1357 N.pl3     1 ACP        -0.6834
     23 C8         -0.7736    1.3475   -2.7932 C.ar      1 ACP         0.5614
     24 N7         -0.6356    0.8373   -3.9991 N.2       1 ACP        -0.5751
     25 C5          0.7095    0.5981   -4.1281 C.ar      1 ACP        -0.2117
     26 C6          1.4733    0.0704   -5.1643 C.ar      1 ACP         0.7177
     27 N6          0.8693   -0.3355   -6.3666 N.pl3     1 ACP        -0.9401
     28 N1          2.8130   -0.0482   -5.0009 N.ar      1 ACP        -0.8008
     29 C2          3.3380    0.3602   -3.8204 C.ar      1 ACP         0.6565
     30 N3          2.7052    0.8841   -2.7480 N.ar      1 ACP        -0.7061
     31 C4          1.3867    0.9726   -2.9785 C.ar      1 ACP         0.5715
     32 HOG3        5.1355    0.9729    3.9770 H         1 ACP         0.4226
     33 HOB2        8.7755    5.2601    0.7359 H         1 ACP         0.4482
     34 H3B1        7.3028    3.9239    3.8779 H         1 ACP         0.1012
     35 H3B2        8.9334    3.2787    4.0422 H         1 ACP         0.1012
     36 H5'1        4.3180    1.3550   -0.6470 H         1 ACP         0.0481
     37 H5'2        4.6085    1.5739    1.0983 H         1 ACP         0.0481
     38 H4'         2.3751    2.7029    1.3156 H         1 ACP         0.0904
     39 H3'         2.4336   -0.1217   -0.0015 H         1 ACP         0.0809
     40 HO3'        1.7160   -0.6716    2.0397 H         1 ACP         0.4528
     41 H2'         0.0316    0.0155   -0.0339 H         1 ACP         0.0594
     42 HO2'       -0.1608    0.7921    2.1351 H         1 ACP         0.4344
     43 H1'        -0.1474    2.7798   -0.6651 H         1 ACP         0.1127
     44 H8         -1.7070    1.6599   -2.3451 H         1 ACP         0.1050
     45 HN61       -0.1277   -0.2866   -6.4583 H         1 ACP         0.4211
     46 HN62        1.4308   -0.7566   -7.0823 H         1 ACP         0.4211
     47 H2          4.4130    0.2505   -3.7241 H         1 ACP         0.0375
@<TRIPOS>BOND
     1    1    2 2
     2    1    3 1
     3    1    4 1
     4    1    8 1
     5    4   32 1
     6    5    6 2
     7    5    7 1
     8    5    8 1
     9    5   12 1
    10    7   33 1
    11    8   34 1
    12    8   35 1
    13    9   10 2
    14    9   11 1
    15    9   12 1
    16    9   13 1
    17   13   14 1
    18   14   15 1
    19   14   36 1
    20   14   37 1
    21   15   16 1
    22   15   17 1
    23   15   38 1
    24   16   21 1
    25   17   18 1
    26   17   19 1
    27   17   39 1
    28   18   40 1
    29   19   20 1
    30   19   21 1
    31   19   41 1
    32   20   42 1
    33   21   22 1
    34   21   43 1
    35   22   23 ar
    36   22   31 ar
    37   23   24 ar
    38   23   44 1
    39   24   25 ar
    40   25   26 ar
    41   25   31 ar
    42   26   27 1
    43   26   28 ar
    44   27   45 1
    45   27   46 1
    46   28   29 ar
    47   29   30 ar
    48   29   47 1
    49   30   31 ar
@<TRIPOS>SUBSTRUCTURE
     1 ACP         1 GROUP 0 A     ****
@<TRIPOS>MOLECULE
[[[5-(6-aminopurin-9-yl)-3,4-dihydroxy-tetrahydrofuran-2-yl]methoxy-oxido-phosphoryl]oxy-hydroxy-phosphoryl]methyl-hydroxy-phosphinate
   47    49     1     0     0
SMALL
USER_CHARGES

@<TRIPOS>ATOM
      1 PG          8.0863    5.0497   -3.5508 P.3       1 ACP         1.3516
      2 O1G         8.3830    6.5223   -3.3871 O.co2     1 ACP        -0.8379
      3 O2G         8.3881    4.3034   -4.8298 O.co2     1 ACP        -0.8379
      4 O3G         8.7064    4.2282   -2.2856 O.3       1 ACP        -0.7980
      5 PB          5.4741    3.1966   -3.2401 P.3       1 ACP         1.7688
      6 O1B         5.5130    2.5216   -4.5783 O.2       1 ACP        -0.9167
      7 O2B         3.9905    3.4983   -2.6747 O.3       1 ACP        -0.8201
      8 C3B         6.2924    4.8047   -3.1754 C.3       1 ACP        -0.6097
      9 PA          5.8980    0.9306   -1.3851 P.3       1 ACP         1.5979
     10 O1A         6.7587    0.7749   -0.1503 O.co2     1 ACP        -0.8617
     11 O2A         5.9322   -0.1059   -2.4870 O.co2     1 ACP        -0.8617
     12 O3A         6.1874    2.4018   -2.0295 O.3       1 ACP        -0.8283
     13 O5'         4.3515    1.1573   -0.9028 O.3       1 ACP        -0.5783
     14 C5'         4.0922    1.9801    0.2227 C.3       1 ACP         0.1980
     15 C4'         2.5944    2.0310    0.4653 C.3       1 ACP         0.0815
     16 O4'         1.9327    2.5740   -0.6889 O.3       1 ACP        -0.4127
     17 C3'         1.9685    0.6634    0.6767 C.3       1 ACP         0.0890
     18 O3'         2.1425    0.1975    1.9977 O.3       1 ACP        -0.6221
     19 C2'         0.5176    0.9128    0.3099 C.3       1 ACP         0.1067
     20 O2'        -0.2103    1.4454    1.4152 O.3       1 ACP        -0.6053
     21 C1'         0.6219    1.9765   -0.7844 C.3       1 ACP         0.4223
     22 N9          0.4237    1.4496   -2.1357 N.pl3     1 ACP        -0.6834
     23 C8          1.1856    0.4888   -2.7458 C.ar      1 ACP         0.5614
     24 N7          0.7615    0.2176   -3.9625 N.2       1 ACP        -0.5751
     25 C5         -0.3220    1.0389   -4.1486 C.ar      1 ACP        -0.2117
     26 C6         -1.1900    1.2182   -5.2210 C.ar      1 ACP         0.7177
     27 N6         -1.0341    0.4739   -6.4028 N.pl3     1 ACP        -0.9401
     28 N1         -2.1929    2.1227   -5.1127 N.ar      1 ACP        -0.8008
     29 C2         -2.2930    2.8097   -3.9492 C.ar      1 ACP         0.6565
     30 N3         -1.5176    2.7252   -2.8462 N.ar      1 ACP        -0.7061
     31 C4         -0.5489    1.8142   -3.0226 C.ar      1 ACP         0.5715
     32 HOG3        9.6733    4.2736   -2.1270 H         1 ACP         0.4226
     33 HOB2        3.3769    2.7475   -2.5265 H         1 ACP         0.4482
     34 H3B1        6.1344    5.2167   -2.1723 H         1 ACP         0.1012
     35 H3B2        5.7650    5.4595   -3.8773 H         1 ACP         0.1012
     36 H5'1        4.6070    1.5616    1.0933 H         1 ACP         0.0481
     37 H5'2        4.4825    2.9835    0.0252 H         1 ACP         0.0481
     38 H4'         2.3751    2.7029    1.3156 H         1 ACP         0.0904
     39 H3'         2.4336   -0.1217   -0.0015 H         1 ACP         0.0809
     40 HO3'        1.7160   -0.6716    2.0397 H         1 ACP         0.4528
     41 H2'         0.0316    0.0155   -0.0339 H         1 ACP         0.0594
     42 HO2'       -0.1608    0.7921    2.1351 H         1 ACP         0.4344
     43 H1'        -0.1474    2.7798   -0.6651 H         1 ACP         0.1127
     44 H8          2.0314    0.0256   -2.2564 H         1 ACP         0.1050
     45 HN61       -0.2609   -0.1582   -6.4888 H         1 ACP         0.4211
     46 HN62       -1.6409    0.6517   -7.1807 H         1 ACP         0.4211
     47 H2         -3.1067    3.5253   -3.8975 H         1 ACP         0.0375
@<TRIPOS>BOND
     1    1    2 2
     2    1    3 1
     3    1    4 1
     4    1    8 1
     5    4   32 1
     6    5    6 2
     7    5    7 1
     8    5    8 1
     9    5   12 1
    10    7   33 1
    11    8   34 1
    12    8   35 1
    13    9   10 2
    14    9   11 1
    15    9   12 1
    16    9   13 1
    17   13   14 1
    18   14   15 1
    19   14   36 1
    20   14   37 1
    21   15   16 1
    22   15   17 1
    23   15   38 1
    24   16   21 1
    25   17   18 1
    26   17   19 1
    27   17   39 1
    28   18   40 1
    29   19   20 1
    30   19   21 1
    31   19   41 1
    32   20   42 1
    33   21   22 1
    34   21   43 1
    35   22   23 ar
    36   22   31 ar
    37   23   24 ar
    38   23   44 1
    39   24   25 ar
    40   25   26 ar
    41   25   31 ar
    42   26   27 1
    43   26   28 ar
    44   27   45 1
    45   27   46 1
    46   28   29 ar
    47   29   30 ar
    48   29   47 1
    49   30   31 ar
@<TRIPOS>SUBSTRUCTURE
     1 ACP         1 GROUP 0 A     ****
@<TRIPOS>MOLECULE
[[[5-(6-aminopurin-9-yl)-3,4-dihydroxy-tetrahydrofuran-2-yl]methoxy-oxido-phosphoryl]oxy-hydroxy-phosphoryl]methyl-hydroxy-phosphinate
   47    49     1     0     0
SMALL
USER_CHARGES

@<TRIPOS>ATOM
      1 PG          2.3259    3.9563   -5.2825 P.3       1 ACP         1.3516
      2 O1G         2.2247    2.4487   -5.2941 O.co2     1 ACP        -0.8379
      3 O2G         2.6254    4.7350   -4.0225 O.co2     1 ACP        -0.8379
      4 O3G         3.3329    4.4408   -6.4706 O.3       1 ACP        -0.7980
      5 PB         -0.8736    4.2977   -5.2568 P.3       1 ACP         1.7688
      6 O1B        -2.0255    4.9287   -5.9801 O.2       1 ACP        -0.9167
      7 O2B        -0.7032    4.7595   -3.7176 O.3       1 ACP        -0.8201
      8 C3B         0.7480    4.6191   -5.9826 C.3       1 ACP        -0.6097
      9 PA         -1.9759    1.6544   -4.5130 P.3       1 ACP         1.5979
     10 O1A        -1.3934    0.2587   -4.5652 O.co2     1 ACP        -0.8617
     11 O2A        -3.3453    1.9426   -5.0888 O.co2     1 ACP        -0.8617
     12 O3A        -0.8949    2.6859   -5.1695 O.3       1 ACP        -0.8283
     13 O5'        -1.9207    2.1716   -2.9622 O.3       1 ACP        -0.5783
     14 C5'        -0.7794    1.8744   -2.1748 C.3       1 ACP         0.1980
     15 C4'        -0.9699    2.4597   -0.7819 C.3       1 ACP         0.0815
     16 O4'        -2.1475    1.8640   -0.2014 O.3       1 ACP        -0.4127
     17 C3'         0.1697    2.1347    0.1695 C.3       1 ACP         0.0890
     18 O3'         0.1809    3.0982    1.2223 O.3       1 ACP        -0.6221
     19 C2'        -0.2543    0.7880    0.7187 C.3       1 ACP         0.1067
     20 O2'         0.3606    0.4944    1.9582 O.3       1 ACP        -0.6053
     21 C1'        -1.7682    0.9516    0.8548 C.3       1 ACP         0.4223
     22 N9         -2.5926   -0.2553    0.7436 N.pl3     1 ACP        -0.6834
     23 C8         -2.2879   -1.3752    0.0161 C.ar      1 ACP         0.5614
     24 N7         -3.2214   -2.2987    0.1123 N.2       1 ACP        -0.5751
     25 C5         -4.1722   -1.7531    0.9377 C.ar      1 ACP        -0.2117
     26 C6         -5.3870   -2.2342    1.4159 C.ar      1 ACP         0.7177
     27 N6         -5.8433   -3.5142    1.0574 N.pl3     1 ACP        -0.9401
     28 N1         -6.1289   -1.4512    2.2356 N.ar      1 ACP        -0.8008
     29 C2         -5.6370   -0.2275    2.5461 C.ar      1 ACP         0.6565
     30 N3         -4.4810    0.3469    2.1476 N.ar      1 ACP        -0.7061
     31 C4         -3.7996   -0.4810    1.3417 C.ar      1 ACP         0.5715
     32 HOG3        4.2619    4.1265   -6.4535 H         1 ACP         0.4226
     33 HOB2       -1.4367    4.5934   -3.0878 H         1 ACP         0.4482
     34 H3B1        0.8758    5.7060   -6.0400 H         1 ACP         0.1012
     35 H3B2        0.7167    4.2455   -7.0117 H         1 ACP         0.1012
     36 H5'1       -0.6601    0.7877   -2.1202 H         1 ACP         0.0481
     37 H5'2        0.1042    2.3072   -2.6544 H         1 ACP         0.0481
     38 H4'        -1.1469    3.5409   -0.8522 H         1 ACP         0.0904
     39 H3'         1.1601    2.1310   -0.2934 H         1 ACP         0.0809
     40 HO3'        0.9173    2.8584    1.8048 H         1 ACP         0.4528
     41 H2'        -0.0024   -0.0091    0.0062 H         1 ACP         0.0594
     42 HO2'        0.0384   -0.3797    2.2403 H         1 ACP         0.4344
     43 H1'        -2.0584    1.4255    1.8301 H         1 ACP         0.1127
     44 H8         -1.3765   -1.4593   -0.5599 H         1 ACP         0.1050
     45 HN61       -5.3086   -4.0656    0.4134 H         1 ACP         0.4211
     46 HN62       -6.7426   -3.8233    1.3745 H         1 ACP         0.4211
     47 H2         -6.2570    0.3723    3.2040 H         1 ACP         0.0375
@<TRIPOS>BOND
     1    1    2 2
     2    1    3 1
     3    1    4 1
     4    1    8 1
     5    4   32 1
     6    5    6 2
     7    5    7 1
     8    5    8 1
     9    5   12 1
    10    7   33 1
    11    8   34 1
    12    8   35 1
    13    9   10 2
    14    9   11 1
    15    9   12 1
    16    9   13 1
    17   13   14 1
    18   14   15 1
    19   14   36 1
    20   14   37 1
    21   15   16 1
    22   15   17 1
    23   15   38 1
    24   16   21 1
    25   17   18 1
    26   17   19 1
    27   17   39 1
    28   18   40 1
    29   19   20 1
    30   19   21 1
    31   19   41 1
    32   20   42 1
    33   21   22 1
    34   21   43 1
    35   22   23 ar
    36   22   31 ar
    37   23   24 ar
    38   23   44 1
    39   24   25 ar
    40   25   26 ar
    41   25   31 ar
    42   26   27 1
    43   26   28 ar
    44   27   45 1
    45   27   46 1
    46   28   29 ar
    47   29   30 ar
    48   29   47 1
    49   30   31 ar
@<TRIPOS>SUBSTRUCTURE
     1 ACP         1 GROUP 0 A     ****
@<TRIPOS>MOLECULE
[[[5-(6-aminopurin-9-yl)-3,4-dihydroxy-tetrahydrofuran-2-yl]methoxy-oxido-phosphoryl]oxy-hydroxy-phosphoryl]methyl-hydroxy-phosphinate
   47    49     1     0     0
SMALL
USER_CHARGES

@<TRIPOS>ATOM
      1 PG         -0.5252   -1.5164   -7.3918 P.3       1 ACP         1.3516
      2 O1G        -1.7621   -1.4599   -8.2578 O.co2     1 ACP        -0.8379
      3 O2G         0.5901   -2.5051   -7.6418 O.co2     1 ACP        -0.8379
      4 O3G         0.1024   -0.0181   -7.2451 O.3       1 ACP        -0.7980
      5 PB         -2.1538   -0.5690   -4.7833 P.3       1 ACP         1.7688
      6 O1B        -2.4918   -0.9413   -3.3707 O.2       1 ACP        -0.9167
      7 O2B        -3.4262   -0.4138   -5.7675 O.3       1 ACP        -0.8201
      8 C3B        -1.0866   -1.7433   -5.6447 C.3       1 ACP        -0.6097
      9 PA         -1.7483    2.3548   -4.5785 P.3       1 ACP         1.5979
     10 O1A        -3.1086    2.6629   -5.1655 O.co2     1 ACP        -0.8617
     11 O2A        -0.5643    3.2549   -4.8571 O.co2     1 ACP        -0.8617
     12 O3A        -1.3551    0.8209   -4.9733 O.3       1 ACP        -0.8283
     13 O5'        -1.9207    2.1716   -2.9622 O.3       1 ACP        -0.5783
     14 C5'        -0.7794    1.8744   -2.1748 C.3       1 ACP         0.1980
     15 C4'        -0.9699    2.4597   -0.7819 C.3       1 ACP         0.0815
     16 O4'        -2.1475    1.8640   -0.2014 O.3       1 ACP        -0.4127
     17 C3'         0.1697    2.1347    0.1695 C.3       1 ACP         0.0890
     18 O3'         0.1809    3.0982    1.2223 O.3       1 ACP        -0.6221
     19 C2'        -0.2543    0.7880    0.7187 C.3       1 ACP         0.1067
     20 O2'         0.3606    0.4944    1.9582 O.3       1 ACP        -0.6053
     21 C1'        -1.7682    0.9516    0.8548 C.3       1 ACP         0.4223
     22 N9         -2.5926   -0.2553    0.7436 N.pl3     1 ACP        -0.6834
     23 C8         -3.5599   -0.4866   -0.1983 C.ar      1 ACP         0.5614
     24 N7         -4.1294   -1.6639   -0.0461 N.2       1 ACP        -0.5751
     25 C5         -3.5041   -2.2191    1.0420 C.ar      1 ACP        -0.2117
     26 C6         -3.6605   -3.4390    1.6925 C.ar      1 ACP         0.7177
     27 N6         -4.6108   -4.3735    1.2468 N.pl3     1 ACP        -0.9401
     28 N1         -2.8820   -3.7179    2.7657 N.ar      1 ACP        -0.8008
     29 C2         -1.9837   -2.7784    3.1481 C.ar      1 ACP         0.6565
     30 N3         -1.7408   -1.5668    2.6022 N.ar      1 ACP        -0.7061
     31 C4         -2.5438   -1.3578    1.5483 C.ar      1 ACP         0.5715
     32 HOG3        0.3861    0.4518   -8.0580 H         1 ACP         0.4226
     33 HOB2       -4.1129    0.2534   -5.5545 H         1 ACP         0.4482
     34 H3B1       -1.5758   -2.7233   -5.6092 H         1 ACP         0.1012
     35 H3B2       -0.1642   -1.8244   -5.0598 H         1 ACP         0.1012
     36 H5'1       -0.6601    0.7877   -2.1202 H         1 ACP         0.0481
     37 H5'2        0.1042    2.3072   -2.6544 H         1 ACP         0.0481
     38 H4'        -1.1469    3.5409   -0.8522 H         1 ACP         0.0904
     39 H3'         1.1601    2.1310   -0.2934 H         1 ACP         0.0809
     40 HO3'        0.9173    2.8584    1.8048 H         1 ACP         0.4528
     41 H2'        -0.0024   -0.0091    0.0062 H         1 ACP         0.0594
     42 HO2'        1.3225    0.4909    1.8095 H         1 ACP         0.4344
     43 H1'        -2.0584    1.4255    1.8301 H         1 ACP         0.1127
     44 H8         -3.8030    0.2355   -0.9657 H         1 ACP         0.1050
     45 HN61       -5.2130   -4.1372    0.4810 H         1 ACP         0.4211
     46 HN62       -4.7404   -5.2263    1.7576 H         1 ACP         0.4211
     47 H2         -1.3778   -3.0348    4.0107 H         1 ACP         0.0375
@<TRIPOS>BOND
     1    1    2 2
     2    1    3 1
     3    1    4 1
     4    1    8 1
     5    4   32 1
     6    5    6 2
     7    5    7 1
     8    5    8 1
     9    5   12 1
    10    7   33 1
    11    8   34 1
    12    8   35 1
    13    9   10 2
    14    9   11 1
    15    9   12 1
    16    9   13 1
    17   13   14 1
    18   14   15 1
    19   14   36 1
    20   14   37 1
    21   15   16 1
    22   15   17 1
    23   15   38 1
    24   16   21 1
    25   17   18 1
    26   17   19 1
    27   17   39 1
    28   18   40 1
    29   19   20 1
    30   19   21 1
    31   19   41 1
    32   20   42 1
    33   21   22 1
    34   21   43 1
    35   22   23 ar
    36   22   31 ar
    37   23   24 ar
    38   23   44 1
    39   24   25 ar
    40   25   26 ar
    41   25   31 ar
    42   26   27 1
    43   26   28 ar
    44   27   45 1
    45   27   46 1
    46   28   29 ar
    47   29   30 ar
    48   29   47 1
    49   30   31 ar
@<TRIPOS>SUBSTRUCTURE
     1 ACP         1 GROUP 0 A     ****
@<TRIPOS>MOLECULE
[[[5-(6-aminopurin-9-yl)-3,4-dihydroxy-tetrahydrofuran-2-yl]methoxy-oxido-phosphoryl]oxy-hydroxy-phosphoryl]methyl-hydroxy-phosphinate
   47    49     1     0     0
SMALL
USER_CHARGES

@<TRIPOS>ATOM
      1 PG          8.0638   -0.2980   -2.1937 P.3       1 ACP         1.3516
      2 O1G         9.3387   -0.9690   -2.6495 O.co2     1 ACP        -0.8379
      3 O2G         6.6997   -0.7678   -2.6433 O.co2     1 ACP        -0.8379
      4 O3G         8.0784   -0.1538   -0.5692 O.3       1 ACP        -0.7980
      5 PB          6.9094    2.7047   -2.2678 P.3       1 ACP         1.7688
      6 O1B         5.5873    2.4246   -2.9171 O.2       1 ACP        -0.9167
      7 O2B         7.5817    4.1160   -2.6775 O.3       1 ACP        -0.8201
      8 C3B         8.2023    1.4953   -2.6225 C.3       1 ACP        -0.6097
      9 PA          6.0981    3.6803    0.4053 P.3       1 ACP         1.5979
     10 O1A         6.3392    5.1278    0.0358 O.co2     1 ACP        -0.8617
     11 O2A         6.3667    3.1860    1.8100 O.co2     1 ACP        -0.8617
     12 O3A         6.9081    2.7391   -0.6538 O.3       1 ACP        -0.8283
     13 O5'         4.5669    3.2940   -0.0211 O.3       1 ACP        -0.5783
     14 C5'         4.0922    1.9801    0.2227 C.3       1 ACP         0.1980
     15 C4'         2.5944    2.0310    0.4653 C.3       1 ACP         0.0815
     16 O4'         1.9327    2.5740   -0.6889 O.3       1 ACP        -0.4127
     17 C3'         1.9685    0.6634    0.6767 C.3       1 ACP         0.0890
     18 O3'         2.1425    0.1975    1.9977 O.3       1 ACP        -0.6221
     19 C2'         0.5176    0.9128    0.3099 C.3       1 ACP         0.1067
     20 O2'        -0.2103    1.4454    1.4152 O.3       1 ACP        -0.6053
     21 C1'         0.6219    1.9765   -0.7844 C.3       1 ACP         0.4223
     22 N9          0.4237    1.4496   -2.1357 N.pl3     1 ACP        -0.6834
     23 C8          1.4026    0.9717   -2.9660 C.ar      1 ACP         0.5614
     24 N7          0.9183    0.5619   -4.1197 N.2       1 ACP        -0.5751
     25 C5         -0.4330    0.7845   -4.0331 C.ar      1 ACP        -0.2117
     26 C6         -1.4794    0.5615   -4.9225 C.ar      1 ACP         0.7177
     27 N6         -1.2378    0.0044   -6.1899 N.pl3     1 ACP        -0.9401
     28 N1         -2.7406    0.8885   -4.5512 N.ar      1 ACP        -0.8008
     29 C2         -2.9113    1.4216   -3.3172 C.ar      1 ACP         0.6565
     30 N3         -1.9824    1.6843   -2.3721 N.ar      1 ACP        -0.7061
     31 C4         -0.7613    1.3370   -2.8054 C.ar      1 ACP         0.5715
     32 HOG3        8.1406   -0.9694   -0.0277 H         1 ACP         0.4226
     33 HOB2        7.0964    4.9467   -2.4859 H         1 ACP         0.4482
     34 H3B1        9.1255    1.8489   -2.1496 H         1 ACP         0.1012
     35 H3B2        8.3691    1.5149   -3.7048 H         1 ACP         0.1012
     36 H5'1        4.3180    1.3550   -0.6470 H         1 ACP         0.0481
     37 H5'2        4.6085    1.5739    1.0983 H         1 ACP         0.0481
     38 H4'         2.3751    2.7029    1.3156 H         1 ACP         0.0904
     39 H3'         2.4336   -0.1217   -0.0015 H         1 ACP         0.0809
     40 HO3'        1.7160   -0.6716    2.0397 H         1 ACP         0.4528
     41 H2'         0.0316    0.0155   -0.0339 H         1 ACP         0.0594
     42 HO2'       -1.1270    1.5823    1.1180 H         1 ACP         0.4344
     43 H1'        -0.1474    2.7798   -0.6651 H         1 ACP         0.1127
     44 H8          2.4442    0.9470   -2.6763 H         1 ACP         0.1050
     45 HN61       -0.2955   -0.1901   -6.4713 H         1 ACP         0.4211
     46 HN62       -1.9987   -0.1045   -6.8334 H         1 ACP         0.4211
     47 H2         -3.9335    1.6716   -3.0534 H         1 ACP         0.0375
@<TRIPOS>BOND
     1    1    2 2
     2    1    3 1
     3    1    4 1
     4    1    8 1
     5    4   32 1
     6    5    6 2
     7    5    7 1
     8    5    8 1
     9    5   12 1
    10    7   33 1
    11    8   34 1
    12    8   35 1
    13    9   10 2
    14    9   11 1
    15    9   12 1
    16    9   13 1
    17   13   14 1
    18   14   15 1
    19   14   36 1
    20   14   37 1
    21   15   16 1
    22   15   17 1
    23   15   38 1
    24   16   21 1
    25   17   18 1
    26   17   19 1
    27   17   39 1
    28   18   40 1
    29   19   20 1
    30   19   21 1
    31   19   41 1
    32   20   42 1
    33   21   22 1
    34   21   43 1
    35   22   23 ar
    36   22   31 ar
    37   23   24 ar
    38   23   44 1
    39   24   25 ar
    40   25   26 ar
    41   25   31 ar
    42   26   27 1
    43   26   28 ar
    44   27   45 1
    45   27   46 1
    46   28   29 ar
    47   29   30 ar
    48   29   47 1
    49   30   31 ar
@<TRIPOS>SUBSTRUCTURE
     1 ACP         1 GROUP 0 A     ****
@<TRIPOS>MOLECULE
[[[5-(6-aminopurin-9-yl)-3,4-dihydroxy-tetrahydrofuran-2-yl]methoxy-oxido-phosphoryl]oxy-hydroxy-phosphoryl]methyl-hydroxy-phosphinate
   47    49     1     0     0
SMALL
USER_CHARGES

@<TRIPOS>ATOM
      1 PG          9.2013    2.8934    3.7833 P.3       1 ACP         1.3516
      2 O1G         9.6179    2.3298    2.4446 O.co2     1 ACP        -0.8379
      3 O2G         9.5977    2.2456    5.0898 O.co2     1 ACP        -0.8379
      4 O3G         9.5596    4.4836    3.8368 O.3       1 ACP        -0.7980
      5 PB          6.4464    4.0449    2.5838 P.3       1 ACP         1.7688
      6 O1B         6.7792    5.5067    2.6113 O.2       1 ACP        -0.9167
      7 O2B         4.8988    3.6950    2.8908 O.3       1 ACP        -0.8201
      8 C3B         7.3577    3.0350    3.7709 C.3       1 ACP        -0.6097
      9 PA          6.1595    3.5245   -0.3149 P.3       1 ACP         1.5979
     10 O1A         6.6440    2.3951   -1.1979 O.co2     1 ACP        -0.8617
     11 O2A         6.3928    4.9672   -0.7072 O.co2     1 ACP        -0.8617
     12 O3A         6.7392    3.2823    1.1914 O.3       1 ACP        -0.8283
     13 O5'         4.5669    3.2940   -0.0211 O.3       1 ACP        -0.5783
     14 C5'         4.0922    1.9801    0.2227 C.3       1 ACP         0.1980
     15 C4'         2.5944    2.0310    0.4653 C.3       1 ACP         0.0815
     16 O4'         1.9327    2.5740   -0.6889 O.3       1 ACP        -0.4127
     17 C3'         1.9685    0.6634    0.6767 C.3       1 ACP         0.0890
     18 O3'         2.1425    0.1975    1.9977 O.3       1 ACP        -0.6221
     19 C2'         0.5176    0.9128    0.3099 C.3       1 ACP         0.1067
     20 O2'        -0.2103    1.4454    1.4152 O.3       1 ACP        -0.6053
     21 C1'         0.6219    1.9765   -0.7844 C.3       1 ACP         0.4223
     22 N9          0.4237    1.4496   -2.1357 N.pl3     1 ACP        -0.6834
     23 C8          1.4026    0.9717   -2.9660 C.ar      1 ACP         0.5614
     24 N7          0.9183    0.5619   -4.1197 N.2       1 ACP        -0.5751
     25 C5         -0.4330    0.7845   -4.0331 C.ar      1 ACP        -0.2117
     26 C6         -1.4794    0.5615   -4.9225 C.ar      1 ACP         0.7177
     27 N6         -1.2378    0.0044   -6.1899 N.pl3     1 ACP        -0.9401
     28 N1         -2.7406    0.8885   -4.5512 N.ar      1 ACP        -0.8008
     29 C2         -2.9113    1.4216   -3.3172 C.ar      1 ACP         0.6565
     30 N3         -1.9824    1.6843   -2.3721 N.ar      1 ACP        -0.7061
     31 C4         -0.7613    1.3370   -2.8054 C.ar      1 ACP         0.5715
     32 HOG3       10.4959    4.7560    3.7299 H         1 ACP         0.4226
     33 HOB2        4.2037    4.0590    2.3022 H         1 ACP         0.4482
     34 H3B1        6.9762    2.0104    3.6960 H         1 ACP         0.1012
     35 H3B2        7.0959    3.4019    4.7692 H         1 ACP         0.1012
     36 H5'1        4.3180    1.3550   -0.6470 H         1 ACP         0.0481
     37 H5'2        4.6085    1.5739    1.0983 H         1 ACP         0.0481
     38 H4'         2.3751    2.7029    1.3156 H         1 ACP         0.0904
     39 H3'         2.4336   -0.1217   -0.0015 H         1 ACP         0.0809
     40 HO3'        1.7160   -0.6716    2.0397 H         1 ACP         0.4528
     41 H2'         0.0316    0.0155   -0.0339 H         1 ACP         0.0594
     42 HO2'       -0.1608    0.7921    2.1351 H         1 ACP         0.4344
     43 H1'        -0.1474    2.7798   -0.6651 H         1 ACP         0.1127
     44 H8          2.4442    0.9470   -2.6763 H         1 ACP         0.1050
     45 HN61       -0.2955   -0.1901   -6.4713 H         1 ACP         0.4211
     46 HN62       -1.9987   -0.1045   -6.8334 H         1 ACP         0.4211
     47 H2         -3.9335    1.6716   -3.0534 H         1 ACP         0.0375
@<TRIPOS>BOND
     1    1    2 2
     2    1    3 1
     3    1    4 1
     4    1    8 1
     5    4   32 1
     6    5    6 2
     7    5    7 1
     8    5    8 1
     9    5   12 1
    10    7   33 1
    11    8   34 1
    12    8   35 1
    13    9   10 2
    14    9   11 1
    15    9   12 1
    16    9   13 1
    17   13   14 1
    18   14   15 1
    19   14   36 1
    20   14   37 1
    21   15   16 1
    22   15   17 1
    23   15   38 1
    24   16   21 1
    25   17   18 1
    26   17   19 1
    27   17   39 1
    28   18   40 1
    29   19   20 1
    30   19   21 1
    31   19   41 1
    32   20   42 1
    33   21   22 1
    34   21   43 1
    35   22   23 ar
    36   22   31 ar
    37   23   24 ar
    38   23   44 1
    39   24   25 ar
    40   25   26 ar
    41   25   31 ar
    42   26   27 1
    43   26   28 ar
    44   27   45 1
    45   27   46 1
    46   28   29 ar
    47   29   30 ar
    48   29   47 1
    49   30   31 ar
@<TRIPOS>SUBSTRUCTURE
     1 ACP         1 GROUP 0 A     ****
@<TRIPOS>MOLECULE
[[[5-(6-aminopurin-9-yl)-3,4-dihydroxy-tetrahydrofuran-2-yl]methoxy-oxido-phosphoryl]oxy-hydroxy-phosphoryl]methyl-hydroxy-phosphinate
   47    49     1     0     0
SMALL
USER_CHARGES

@<TRIPOS>ATOM
      1 PG          0.5992    6.5683   -1.1131 P.3       1 ACP         1.3516
      2 O1G         1.5561    5.8460   -0.1934 O.co2     1 ACP        -0.8379
      3 O2G         1.0344    7.7249   -1.9829 O.co2     1 ACP        -0.8379
      4 O3G        -0.2041    5.4789   -2.0230 O.3       1 ACP        -0.7980
      5 PB         -1.8903    6.0426    0.8568 P.3       1 ACP         1.7688
      6 O1B        -2.6216    5.0251    0.0334 O.2       1 ACP        -0.9167
      7 O2B        -2.8392    7.0446    1.6978 O.3       1 ACP        -0.8201
      8 C3B        -0.8196    7.1531   -0.0815 C.3       1 ACP        -0.6097
      9 PA         -1.1367    4.4810    3.2545 P.3       1 ACP         1.5979
     10 O1A        -2.2478    5.0798    4.0892 O.co2     1 ACP        -0.8617
     11 O2A         0.1952    4.1272    3.8795 O.co2     1 ACP        -0.8617
     12 O3A        -0.8797    5.4536    1.9694 O.3       1 ACP        -0.8283
     13 O5'        -1.7337    3.1724    2.4753 O.3       1 ACP        -0.5783
     14 C5'        -0.8811    2.4285    1.6206 C.3       1 ACP         0.1980
     15 C4'        -0.1994    1.3333    2.4288 C.3       1 ACP         0.0815
     16 O4'        -1.1285    0.2356    2.5840 O.3       1 ACP        -0.4127
     17 C3'         1.0324    0.7610    1.7344 C.3       1 ACP         0.0890
     18 O3'         1.9175    0.2377    2.7247 O.3       1 ACP        -0.6221
     19 C2'         0.4468   -0.3802    0.9263 C.3       1 ACP         0.1067
     20 O2'         1.3993   -1.3703    0.5961 O.3       1 ACP        -0.6053
     21 C1'        -0.6159   -0.9100    1.8769 C.3       1 ACP         0.4223
     22 N9         -1.7127   -1.6108    1.2130 N.pl3     1 ACP        -0.6834
     23 C8         -1.7712   -2.9546    0.9544 C.ar      1 ACP         0.5614
     24 N7         -2.8883   -3.2948    0.3462 N.2       1 ACP        -0.5751
     25 C5         -3.5834   -2.1202    0.2043 C.ar      1 ACP        -0.2117
     26 C6         -4.8225   -1.8251   -0.3554 C.ar      1 ACP         0.7177
     27 N6         -5.6154   -2.8395   -0.9189 N.pl3     1 ACP        -0.9401
     28 N1         -5.2589   -0.5425   -0.3507 N.ar      1 ACP        -0.8008
     29 C2         -4.4510    0.3913    0.2069 C.ar      1 ACP         0.6565
     30 N3         -3.2368    0.2296    0.7767 N.ar      1 ACP        -0.7061
     31 C4         -2.8684   -1.0596    0.7376 C.ar      1 ACP         0.5715
     32 HOG3        0.3132    4.8889   -2.6118 H         1 ACP         0.4226
     33 HOB2       -3.4551    6.6695    2.3627 H         1 ACP         0.4482
     34 H3B1       -0.4019    7.8829    0.6213 H         1 ACP         0.1012
     35 H3B2       -1.4628    7.7069   -0.7737 H         1 ACP         0.1012
     36 H5'1       -1.4802    1.9928    0.8147 H         1 ACP         0.0481
     37 H5'2       -0.1369    3.1042    1.1873 H         1 ACP         0.0481
     38 H4'         0.0403    1.7078    3.4343 H         1 ACP         0.0904
     39 H3'         1.5906    1.4859    1.1353 H         1 ACP         0.0809
     40 HO3'        2.1521    0.9800    3.3017 H         1 ACP         0.4528
     41 H2'        -0.0017    0.0018    0.0005 H         1 ACP         0.0594
     42 HO2'        2.0953   -0.9375    0.0709 H         1 ACP         0.4344
     43 H1'        -0.1998   -1.6319    2.6178 H         1 ACP         0.1127
     44 H8         -0.9745   -3.6312    1.2318 H         1 ACP         0.1050
     45 HN61       -5.2619   -3.7766   -0.9586 H         1 ACP         0.4211
     46 HN62       -6.4834   -2.5990   -1.3590 H         1 ACP         0.4211
     47 H2         -4.8317    1.4071    0.1930 H         1 ACP         0.0375
@<TRIPOS>BOND
     1    1    2 2
     2    1    3 1
     3    1    4 1
     4    1    8 1
     5    4   32 1
     6    5    6 2
     7    5    7 1
     8    5    8 1
     9    5   12 1
    10    7   33 1
    11    8   34 1
    12    8   35 1
    13    9   10 2
    14    9   11 1
    15    9   12 1
    16    9   13 1
    17   13   14 1
    18   14   15 1
    19   14   36 1
    20   14   37 1
    21   15   16 1
    22   15   17 1
    23   15   38 1
    24   16   21 1
    25   17   18 1
    26   17   19 1
    27   17   39 1
    28   18   40 1
    29   19   20 1
    30   19   21 1
    31   19   41 1
    32   20   42 1
    33   21   22 1
    34   21   43 1
    35   22   23 ar
    36   22   31 ar
    37   23   24 ar
    38   23   44 1
    39   24   25 ar
    40   25   26 ar
    41   25   31 ar
    42   26   27 1
    43   26   28 ar
    44   27   45 1
    45   27   46 1
    46   28   29 ar
    47   29   30 ar
    48   29   47 1
    49   30   31 ar
@<TRIPOS>SUBSTRUCTURE
     1 ACP         1 GROUP 0 A     ****
@<TRIPOS>MOLECULE
[[[5-(6-aminopurin-9-yl)-3,4-dihydroxy-tetrahydrofuran-2-yl]methoxy-oxido-phosphoryl]oxy-hydroxy-phosphoryl]methyl-hydroxy-phosphinate
   47    49     1     0     0
SMALL
USER_CHARGES

@<TRIPOS>ATOM
      1 PG          4.7914    6.6009    1.1727 P.3       1 ACP         1.3516
      2 O1G         3.8753    5.4444    0.8463 O.co2     1 ACP        -0.8379
      3 O2G         5.7117    7.2162    0.1440 O.co2     1 ACP        -0.8379
      4 O3G         3.9357    7.7793    1.9072 O.3       1 ACP        -0.7980
      5 PB          6.9419    4.6652    2.5807 P.3       1 ACP         1.7688
      6 O1B         7.6957    4.4233    3.8540 O.2       1 ACP        -0.9167
      7 O2B         7.8681    4.9302    1.2832 O.3       1 ACP        -0.8201
      8 C3B         5.8321    6.0890    2.6128 C.3       1 ACP        -0.6097
      9 PA          6.2530    1.9160    1.7309 P.3       1 ACP         1.5979
     10 O1A         6.6842    1.1958    2.9899 O.co2     1 ACP        -0.8617
     11 O2A         7.1033    1.8634    0.4804 O.co2     1 ACP        -0.8617
     12 O3A         5.9577    3.4761    2.1083 O.3       1 ACP        -0.8283
     13 O5'         4.7294    1.4426    1.3699 O.3       1 ACP        -0.5783
     14 C5'         4.0922    1.9801    0.2227 C.3       1 ACP         0.1980
     15 C4'         2.5944    2.0310    0.4653 C.3       1 ACP         0.0815
     16 O4'         1.9327    2.5740   -0.6889 O.3       1 ACP        -0.4127
     17 C3'         1.9685    0.6634    0.6767 C.3       1 ACP         0.0890
     18 O3'         2.1425    0.1975    1.9977 O.3       1 ACP        -0.6221
     19 C2'         0.5176    0.9128    0.3099 C.3       1 ACP         0.1067
     20 O2'        -0.2103    1.4454    1.4152 O.3       1 ACP        -0.6053
     21 C1'         0.6219    1.9765   -0.7844 C.3       1 ACP         0.4223
     22 N9          0.4237    1.4496   -2.1357 N.pl3     1 ACP        -0.6834
     23 C8          1.4026    0.9717   -2.9660 C.ar      1 ACP         0.5614
     24 N7          0.9183    0.5619   -4.1197 N.2       1 ACP        -0.5751
     25 C5         -0.4330    0.7845   -4.0331 C.ar      1 ACP        -0.2117
     26 C6         -1.4794    0.5615   -4.9225 C.ar      1 ACP         0.7177
     27 N6         -1.2378    0.0044   -6.1899 N.pl3     1 ACP        -0.9401
     28 N1         -2.7406    0.8885   -4.5512 N.ar      1 ACP        -0.8008
     29 C2         -2.9113    1.4216   -3.3172 C.ar      1 ACP         0.6565
     30 N3         -1.9824    1.6843   -2.3721 N.ar      1 ACP        -0.7061
     31 C4         -0.7613    1.3370   -2.8054 C.ar      1 ACP         0.5715
     32 HOG3        3.1842    8.1829    1.4228 H         1 ACP         0.4226
     33 HOB2        8.4998    4.2350    1.0006 H         1 ACP         0.4482
     34 H3B1        6.4285    6.9679    2.8825 H         1 ACP         0.1012
     35 H3B2        5.1216    5.9213    3.4293 H         1 ACP         0.1012
     36 H5'1        4.4844    2.9853    0.0382 H         1 ACP         0.0481
     37 H5'2        4.3192    1.3445   -0.6390 H         1 ACP         0.0481
     38 H4'         2.3751    2.7029    1.3156 H         1 ACP         0.0904
     39 H3'         2.4336   -0.1217   -0.0015 H         1 ACP         0.0809
     40 HO3'        3.0987    0.1465    2.1461 H         1 ACP         0.4528
     41 H2'         0.0316    0.0155   -0.0339 H         1 ACP         0.0594
     42 HO2'       -0.1608    0.7921    2.1351 H         1 ACP         0.4344
     43 H1'        -0.1474    2.7798   -0.6651 H         1 ACP         0.1127
     44 H8          2.4442    0.9470   -2.6763 H         1 ACP         0.1050
     45 HN61       -0.2955   -0.1901   -6.4713 H         1 ACP         0.4211
     46 HN62       -1.9987   -0.1045   -6.8334 H         1 ACP         0.4211
     47 H2         -3.9335    1.6716   -3.0534 H         1 ACP         0.0375
@<TRIPOS>BOND
     1    1    2 2
     2    1    3 1
     3    1    4 1
     4    1    8 1
     5    4   32 1
     6    5    6 2
     7    5    7 1
     8    5    8 1
     9    5   12 1
    10    7   33 1
    11    8   34 1
    12    8   35 1
    13    9   10 2
    14    9   11 1
    15    9   12 1
    16    9   13 1
    17   13   14 1
    18   14   15 1
    19   14   36 1
    20   14   37 1
    21   15   16 1
    22   15   17 1
    23   15   38 1
    24   16   21 1
    25   17   18 1
    26   17   19 1
    27   17   39 1
    28   18   40 1
    29   19   20 1
    30   19   21 1
    31   19   41 1
    32   20   42 1
    33   21   22 1
    34   21   43 1
    35   22   23 ar
    36   22   31 ar
    37   23   24 ar
    38   23   44 1
    39   24   25 ar
    40   25   26 ar
    41   25   31 ar
    42   26   27 1
    43   26   28 ar
    44   27   45 1
    45   27   46 1
    46   28   29 ar
    47   29   30 ar
    48   29   47 1
    49   30   31 ar
@<TRIPOS>SUBSTRUCTURE
     1 ACP         1 GROUP 0 A     ****
@<TRIPOS>MOLECULE
[[[5-(6-aminopurin-9-yl)-3,4-dihydroxy-tetrahydrofuran-2-yl]methoxy-oxido-phosphoryl]oxy-hydroxy-phosphoryl]methyl-hydroxy-phosphinate
   47    49     1     0     0
SMALL
USER_CHARGES

@<TRIPOS>ATOM
      1 PG         -5.2361    7.1037    1.7399 P.3       1 ACP         1.3516
      2 O1G        -5.6748    5.8488    1.0215 O.co2     1 ACP        -0.8379
      3 O2G        -5.0091    8.4104    1.0154 O.co2     1 ACP        -0.8379
      4 O3G        -6.2062    7.3591    3.0258 O.3       1 ACP        -0.7980
      5 PB         -2.1726    6.1247    1.8450 P.3       1 ACP         1.7688
      6 O1B        -1.0241    5.8523    2.7695 O.2       1 ACP        -0.9167
      7 O2B        -1.8877    7.2509    0.7215 O.3       1 ACP        -0.8201
      8 C3B        -3.6809    6.6989    2.6545 C.3       1 ACP        -0.6097
      9 PA         -3.3165    3.4234    1.4577 P.3       1 ACP         1.5979
     10 O1A        -3.4792    2.5547    0.2293 O.co2     1 ACP        -0.8617
     11 O2A        -4.4804    3.6637    2.3942 O.co2     1 ACP        -0.8617
     12 O3A        -2.7035    4.8620    0.9906 O.3       1 ACP        -0.8283
     13 O5'        -2.0402    2.8619    2.3131 O.3       1 ACP        -0.5783
     14 C5'        -0.8811    2.4285    1.6206 C.3       1 ACP         0.1980
     15 C4'        -0.1994    1.3333    2.4288 C.3       1 ACP         0.0815
     16 O4'        -1.1285    0.2356    2.5840 O.3       1 ACP        -0.4127
     17 C3'         1.0324    0.7610    1.7344 C.3       1 ACP         0.0890
     18 O3'         1.9175    0.2377    2.7247 O.3       1 ACP        -0.6221
     19 C2'         0.4468   -0.3802    0.9263 C.3       1 ACP         0.1067
     20 O2'         1.3993   -1.3703    0.5961 O.3       1 ACP        -0.6053
     21 C1'        -0.6159   -0.9100    1.8769 C.3       1 ACP         0.4223
     22 N9         -1.7127   -1.6108    1.2130 N.pl3     1 ACP        -0.6834
     23 C8         -2.8641   -1.0399    0.7392 C.ar      1 ACP         0.5614
     24 N7         -3.6659   -1.9257    0.1858 N.2       1 ACP        -0.5751
     25 C5         -3.0053   -3.1223    0.3069 C.ar      1 ACP        -0.2117
     26 C6         -3.3321   -4.4178   -0.0813 C.ar      1 ACP         0.7177
     27 N6         -4.5476   -4.6866   -0.7335 N.pl3     1 ACP        -0.9401
     28 N1         -2.4608   -5.4225    0.1773 N.ar      1 ACP        -0.8008
     29 C2         -1.3053   -5.1020    0.8081 C.ar      1 ACP         0.6565
     30 N3         -0.8788   -3.8921    1.2315 N.ar      1 ACP        -0.7061
     31 C4         -1.7870   -2.9477    0.9438 C.ar      1 ACP         0.5715
     32 HOG3       -7.1669    7.4817    2.8699 H         1 ACP         0.4226
     33 HOB2       -1.1582    7.1094    0.0813 H         1 ACP         0.4482
     34 H3B1       -3.4267    7.5958    3.2306 H         1 ACP         0.1012
     35 H3B2       -3.9699    5.9266    3.3752 H         1 ACP         0.1012
     36 H5'1       -1.1770    2.0503    0.6369 H         1 ACP         0.0481
     37 H5'2       -0.2082    3.2815    1.4877 H         1 ACP         0.0481
     38 H4'         0.0403    1.7078    3.4343 H         1 ACP         0.0904
     39 H3'         1.5906    1.4859    1.1353 H         1 ACP         0.0809
     40 HO3'        2.6839   -0.1150    2.2479 H         1 ACP         0.4528
     41 H2'        -0.0017    0.0018    0.0005 H         1 ACP         0.0594
     42 HO2'        2.0953   -0.9375    0.0709 H         1 ACP         0.4344
     43 H1'        -0.1998   -1.6319    2.6178 H         1 ACP         0.1127
     44 H8         -3.0609    0.0200    0.8250 H         1 ACP         0.1050
     45 HN61       -5.2046   -3.9433   -0.8775 H         1 ACP         0.4211
     46 HN62       -4.7849   -5.6332   -0.9625 H         1 ACP         0.4211
     47 H2         -0.6318   -5.9307    0.9993 H         1 ACP         0.0375
@<TRIPOS>BOND
     1    1    2 2
     2    1    3 1
     3    1    4 1
     4    1    8 1
     5    4   32 1
     6    5    6 2
     7    5    7 1
     8    5    8 1
     9    5   12 1
    10    7   33 1
    11    8   34 1
    12    8   35 1
    13    9   10 2
    14    9   11 1
    15    9   12 1
    16    9   13 1
    17   13   14 1
    18   14   15 1
    19   14   36 1
    20   14   37 1
    21   15   16 1
    22   15   17 1
    23   15   38 1
    24   16   21 1
    25   17   18 1
    26   17   19 1
    27   17   39 1
    28   18   40 1
    29   19   20 1
    30   19   21 1
    31   19   41 1
    32   20   42 1
    33   21   22 1
    34   21   43 1
    35   22   23 ar
    36   22   31 ar
    37   23   24 ar
    38   23   44 1
    39   24   25 ar
    40   25   26 ar
    41   25   31 ar
    42   26   27 1
    43   26   28 ar
    44   27   45 1
    45   27   46 1
    46   28   29 ar
    47   29   30 ar
    48   29   47 1
    49   30   31 ar
@<TRIPOS>SUBSTRUCTURE
     1 ACP         1 GROUP 0 A     ****
@<TRIPOS>MOLECULE
[[[5-(6-aminopurin-9-yl)-3,4-dihydroxy-tetrahydrofuran-2-yl]methoxy-oxido-phosphoryl]oxy-hydroxy-phosphoryl]methyl-hydroxy-phosphinate
   47    49     1     0     0
SMALL
USER_CHARGES

@<TRIPOS>ATOM
      1 PG          0.4156    6.7097   -2.7117 P.3       1 ACP         1.3516
      2 O1G        -0.9267    6.8868   -2.0407 O.co2     1 ACP        -0.8379
      3 O2G         0.5467    6.4115   -4.1874 O.co2     1 ACP        -0.8379
      4 O3G         1.3843    7.9634   -2.3247 O.3       1 ACP        -0.7980
      5 PB          0.7010    3.6929   -1.6294 P.3       1 ACP         1.7688
      6 O1B         1.5866    2.7708   -0.8460 O.2       1 ACP        -0.9167
      7 O2B         0.4233    3.2349   -3.1541 O.3       1 ACP        -0.8201
      8 C3B         1.3181    5.3815   -1.7949 C.3       1 ACP        -0.6097
      9 PA         -1.9977    2.8866   -0.7226 P.3       1 ACP         1.5979
     10 O1A        -2.2657    2.0869   -1.9790 O.co2     1 ACP        -0.8617
     11 O2A        -3.1169    3.6285   -0.0250 O.co2     1 ACP        -0.8617
     12 O3A        -0.7786    3.9277   -1.0279 O.3       1 ACP        -0.8283
     13 O5'        -1.2434    1.9102    0.3513 O.3       1 ACP        -0.5783
     14 C5'        -0.8811    2.4285    1.6206 C.3       1 ACP         0.1980
     15 C4'        -0.1994    1.3333    2.4288 C.3       1 ACP         0.0815
     16 O4'        -1.1285    0.2356    2.5840 O.3       1 ACP        -0.4127
     17 C3'         1.0324    0.7610    1.7344 C.3       1 ACP         0.0890
     18 O3'         1.9175    0.2377    2.7247 O.3       1 ACP        -0.6221
     19 C2'         0.4468   -0.3802    0.9263 C.3       1 ACP         0.1067
     20 O2'         1.3993   -1.3703    0.5961 O.3       1 ACP        -0.6053
     21 C1'        -0.6159   -0.9100    1.8769 C.3       1 ACP         0.4223
     22 N9         -1.7127   -1.6108    1.2130 N.pl3     1 ACP        -0.6834
     23 C8         -2.8641   -1.0399    0.7392 C.ar      1 ACP         0.5614
     24 N7         -3.6659   -1.9257    0.1858 N.2       1 ACP        -0.5751
     25 C5         -3.0053   -3.1223    0.3069 C.ar      1 ACP        -0.2117
     26 C6         -3.3321   -4.4178   -0.0813 C.ar      1 ACP         0.7177
     27 N6         -4.5476   -4.6866   -0.7335 N.pl3     1 ACP        -0.9401
     28 N1         -2.4608   -5.4225    0.1773 N.ar      1 ACP        -0.8008
     29 C2         -1.3053   -5.1020    0.8081 C.ar      1 ACP         0.6565
     30 N3         -0.8788   -3.8921    1.2315 N.ar      1 ACP        -0.7061
     31 C4         -1.7870   -2.9477    0.9438 C.ar      1 ACP         0.5715
     32 HOG3        1.0981    8.8690   -2.5704 H         1 ACP         0.4226
     33 HOB2       -0.0097    2.3703   -3.3190 H         1 ACP         0.4482
     34 H3B1        2.3155    5.3271   -2.2457 H         1 ACP         0.1012
     35 H3B2        1.4461    5.7752   -0.7809 H         1 ACP         0.1012
     36 H5'1       -0.2034    3.2760    1.4766 H         1 ACP         0.0481
     37 H5'2       -1.7842    2.7761    2.1321 H         1 ACP         0.0481
     38 H4'         0.0403    1.7078    3.4343 H         1 ACP         0.0904
     39 H3'         1.5906    1.4859    1.1353 H         1 ACP         0.0809
     40 HO3'        2.6839   -0.1150    2.2479 H         1 ACP         0.4528
     41 H2'        -0.0017    0.0018    0.0005 H         1 ACP         0.0594
     42 HO2'        2.0953   -0.9375    0.0709 H         1 ACP         0.4344
     43 H1'        -0.1998   -1.6319    2.6178 H         1 ACP         0.1127
     44 H8         -3.0609    0.0200    0.8250 H         1 ACP         0.1050
     45 HN61       -5.2046   -3.9433   -0.8775 H         1 ACP         0.4211
     46 HN62       -4.7849   -5.6332   -0.9625 H         1 ACP         0.4211
     47 H2         -0.6318   -5.9307    0.9993 H         1 ACP         0.0375
@<TRIPOS>BOND
     1    1    2 2
     2    1    3 1
     3    1    4 1
     4    1    8 1
     5    4   32 1
     6    5    6 2
     7    5    7 1
     8    5    8 1
     9    5   12 1
    10    7   33 1
    11    8   34 1
    12    8   35 1
    13    9   10 2
    14    9   11 1
    15    9   12 1
    16    9   13 1
    17   13   14 1
    18   14   15 1
    19   14   36 1
    20   14   37 1
    21   15   16 1
    22   15   17 1
    23   15   38 1
    24   16   21 1
    25   17   18 1
    26   17   19 1
    27   17   39 1
    28   18   40 1
    29   19   20 1
    30   19   21 1
    31   19   41 1
    32   20   42 1
    33   21   22 1
    34   21   43 1
    35   22   23 ar
    36   22   31 ar
    37   23   24 ar
    38   23   44 1
    39   24   25 ar
    40   25   26 ar
    41   25   31 ar
    42   26   27 1
    43   26   28 ar
    44   27   45 1
    45   27   46 1
    46   28   29 ar
    47   29   30 ar
    48   29   47 1
    49   30   31 ar
@<TRIPOS>SUBSTRUCTURE
     1 ACP         1 GROUP 0 A     ****
@<TRIPOS>MOLECULE
[[[5-(6-aminopurin-9-yl)-3,4-dihydroxy-tetrahydrofuran-2-yl]methoxy-oxido-phosphoryl]oxy-hydroxy-phosphoryl]methyl-hydroxy-phosphinate
   47    49     1     0     0
SMALL
USER_CHARGES

@<TRIPOS>ATOM
      1 PG         -3.3348    7.1026   -0.1298 P.3       1 ACP         1.3516
      2 O1G        -4.7217    7.2748   -0.7044 O.co2     1 ACP        -0.8379
      3 O2G        -2.4028    6.0044   -0.5871 O.co2     1 ACP        -0.8379
      4 O3G        -2.5496    8.5315   -0.1722 O.3       1 ACP        -0.7980
      5 PB         -2.1157    6.7274    2.8244 P.3       1 ACP         1.7688
      6 O1B        -2.4789    6.6260    4.2756 O.2       1 ACP        -0.9167
      7 O2B        -1.1294    7.9532    2.4553 O.3       1 ACP        -0.8201
      8 C3B        -3.5140    6.9504    1.7043 C.3       1 ACP        -0.6097
      9 PA          0.0332    4.7085    2.5761 P.3       1 ACP         1.5979
     10 O1A        -0.1161    4.0779    3.9435 O.co2     1 ACP        -0.8617
     11 O2A         1.1770    5.6544    2.2817 O.co2     1 ACP        -0.8617
     12 O3A        -1.3743    5.4401    2.1925 O.3       1 ACP        -0.8283
     13 O5'         0.0181    3.5132    1.4596 O.3       1 ACP        -0.5783
     14 C5'        -0.8811    2.4285    1.6206 C.3       1 ACP         0.1980
     15 C4'        -0.1994    1.3333    2.4288 C.3       1 ACP         0.0815
     16 O4'        -1.1285    0.2356    2.5840 O.3       1 ACP        -0.4127
     17 C3'         1.0324    0.7610    1.7344 C.3       1 ACP         0.0890
     18 O3'         1.9175    0.2377    2.7247 O.3       1 ACP        -0.6221
     19 C2'         0.4468   -0.3802    0.9263 C.3       1 ACP         0.1067
     20 O2'         1.3993   -1.3703    0.5961 O.3       1 ACP        -0.6053
     21 C1'        -0.6159   -0.9100    1.8769 C.3       1 ACP         0.4223
     22 N9         -1.7127   -1.6108    1.2130 N.pl3     1 ACP        -0.6834
     23 C8         -1.7712   -2.9546    0.9544 C.ar      1 ACP         0.5614
     24 N7         -2.8883   -3.2948    0.3462 N.2       1 ACP        -0.5751
     25 C5         -3.5834   -2.1202    0.2043 C.ar      1 ACP        -0.2117
     26 C6         -4.8225   -1.8251   -0.3554 C.ar      1 ACP         0.7177
     27 N6         -5.6154   -2.8395   -0.9189 N.pl3     1 ACP        -0.9401
     28 N1         -5.2589   -0.5425   -0.3507 N.ar      1 ACP        -0.8008
     29 C2         -4.4510    0.3913    0.2069 C.ar      1 ACP         0.6565
     30 N3         -3.2368    0.2296    0.7767 N.ar      1 ACP        -0.7061
     31 C4         -2.8684   -1.0596    0.7376 C.ar      1 ACP         0.5715
     32 HOG3       -2.4094    8.9626   -1.0421 H         1 ACP         0.4226
     33 HOB2       -0.2442    7.9938    2.8758 H         1 ACP         0.4482
     34 H3B1       -4.0602    7.8430    2.0298 H         1 ACP         0.1012
     35 H3B2       -4.1814    6.0947    1.8528 H         1 ACP         0.1012
     36 H5'1       -1.7769    2.7851    2.1387 H         1 ACP         0.0481
     37 H5'2       -1.1653    2.0543    0.6320 H         1 ACP         0.0481
     38 H4'         0.0403    1.7078    3.4343 H         1 ACP         0.0904
     39 H3'         1.5906    1.4859    1.1353 H         1 ACP         0.0809
     40 HO3'        2.6839   -0.1150    2.2479 H         1 ACP         0.4528
     41 H2'        -0.0017    0.0018    0.0005 H         1 ACP         0.0594
     42 HO2'        2.0953   -0.9375    0.0709 H         1 ACP         0.4344
     43 H1'        -0.1998   -1.6319    2.6178 H         1 ACP         0.1127
     44 H8         -0.9745   -3.6312    1.2318 H         1 ACP         0.1050
     45 HN61       -5.2619   -3.7766   -0.9586 H         1 ACP         0.4211
     46 HN62       -6.4834   -2.5990   -1.3590 H         1 ACP         0.4211
     47 H2         -4.8317    1.4071    0.1930 H         1 ACP         0.0375
@<TRIPOS>BOND
     1    1    2 2
     2    1    3 1
     3    1    4 1
     4    1    8 1
     5    4   32 1
     6    5    6 2
     7    5    7 1
     8    5    8 1
     9    5   12 1
    10    7   33 1
    11    8   34 1
    12    8   35 1
    13    9   10 2
    14    9   11 1
    15    9   12 1
    16    9   13 1
    17   13   14 1
    18   14   15 1
    19   14   36 1
    20   14   37 1
    21   15   16 1
    22   15   17 1
    23   15   38 1
    24   16   21 1
    25   17   18 1
    26   17   19 1
    27   17   39 1
    28   18   40 1
    29   19   20 1
    30   19   21 1
    31   19   41 1
    32   20   42 1
    33   21   22 1
    34   21   43 1
    35   22   23 ar
    36   22   31 ar
    37   23   24 ar
    38   23   44 1
    39   24   25 ar
    40   25   26 ar
    41   25   31 ar
    42   26   27 1
    43   26   28 ar
    44   27   45 1
    45   27   46 1
    46   28   29 ar
    47   29   30 ar
    48   29   47 1
    49   30   31 ar
@<TRIPOS>SUBSTRUCTURE
     1 ACP         1 GROUP 0 A     ****
@<TRIPOS>MOLECULE
[[[5-(6-aminopurin-9-yl)-3,4-dihydroxy-tetrahydrofuran-2-yl]methoxy-oxido-phosphoryl]oxy-hydroxy-phosphoryl]methyl-hydroxy-phosphinate
   47    49     1     0     0
SMALL
USER_CHARGES

@<TRIPOS>ATOM
      1 PG         -3.3964    6.5802    1.9945 P.3       1 ACP         1.3516
      2 O1G        -2.4494    7.7418    1.8016 O.co2     1 ACP        -0.8379
      3 O2G        -3.0062    5.3412    2.7669 O.co2     1 ACP        -0.8379
      4 O3G        -4.8277    7.1339    2.5465 O.3       1 ACP        -0.7980
      5 PB         -2.8166    5.4521   -0.9627 P.3       1 ACP         1.7688
      6 O1B        -1.7747    6.4443   -1.3850 O.2       1 ACP        -0.9167
      7 O2B        -3.7981    4.9533   -2.1458 O.3       1 ACP        -0.8201
      8 C3B        -3.9494    6.0365    0.3159 C.3       1 ACP        -0.6097
      9 PA         -1.2907    2.9171   -0.9369 P.3       1 ACP         1.5979
     10 O1A         0.0908    3.5050   -1.1264 O.co2     1 ACP        -0.8617
     11 O2A        -2.0030    2.2316   -2.0825 O.co2     1 ACP        -0.8617
     12 O3A        -2.2618    4.0770   -0.3245 O.3       1 ACP        -0.8283
     13 O5'        -1.2434    1.9102    0.3513 O.3       1 ACP        -0.5783
     14 C5'        -0.8811    2.4285    1.6206 C.3       1 ACP         0.1980
     15 C4'        -0.1994    1.3333    2.4288 C.3       1 ACP         0.0815
     16 O4'        -1.1285    0.2356    2.5840 O.3       1 ACP        -0.4127
     17 C3'         1.0324    0.7610    1.7344 C.3       1 ACP         0.0890
     18 O3'         1.9175    0.2377    2.7247 O.3       1 ACP        -0.6221
     19 C2'         0.4468   -0.3802    0.9263 C.3       1 ACP         0.1067
     20 O2'         1.3993   -1.3703    0.5961 O.3       1 ACP        -0.6053
     21 C1'        -0.6159   -0.9100    1.8769 C.3       1 ACP         0.4223
     22 N9         -1.7127   -1.6108    1.2130 N.pl3     1 ACP        -0.6834
     23 C8         -2.8641   -1.0399    0.7392 C.ar      1 ACP         0.5614
     24 N7         -3.6659   -1.9257    0.1858 N.2       1 ACP        -0.5751
     25 C5         -3.0053   -3.1223    0.3069 C.ar      1 ACP        -0.2117
     26 C6         -3.3321   -4.4178   -0.0813 C.ar      1 ACP         0.7177
     27 N6         -4.5476   -4.6866   -0.7335 N.pl3     1 ACP        -0.9401
     28 N1         -2.4608   -5.4225    0.1773 N.ar      1 ACP        -0.8008
     29 C2         -1.3053   -5.1020    0.8081 C.ar      1 ACP         0.6565
     30 N3         -0.8788   -3.8921    1.2315 N.ar      1 ACP        -0.7061
     31 C4         -1.7870   -2.9477    0.9438 C.ar      1 ACP         0.5715
     32 HOG3       -4.8447    7.6164    3.4004 H         1 ACP         0.4226
     33 HOB2       -3.4108    4.5016   -2.9255 H         1 ACP         0.4482
     34 H3B1       -4.6945    5.2505    0.4829 H         1 ACP         0.1012
     35 H3B2       -4.4815    6.8991   -0.0993 H         1 ACP         0.1012
     36 H5'1       -0.2034    3.2760    1.4766 H         1 ACP         0.0481
     37 H5'2       -1.7842    2.7761    2.1321 H         1 ACP         0.0481
     38 H4'         0.0403    1.7078    3.4343 H         1 ACP         0.0904
     39 H3'         1.5906    1.4859    1.1353 H         1 ACP         0.0809
     40 HO3'        2.6839   -0.1150    2.2479 H         1 ACP         0.4528
     41 H2'        -0.0017    0.0018    0.0005 H         1 ACP         0.0594
     42 HO2'        2.0953   -0.9375    0.0709 H         1 ACP         0.4344
     43 H1'        -0.1998   -1.6319    2.6178 H         1 ACP         0.1127
     44 H8         -3.0609    0.0200    0.8250 H         1 ACP         0.1050
     45 HN61       -5.2046   -3.9433   -0.8775 H         1 ACP         0.4211
     46 HN62       -4.7849   -5.6332   -0.9625 H         1 ACP         0.4211
     47 H2         -0.6318   -5.9307    0.9993 H         1 ACP         0.0375
@<TRIPOS>BOND
     1    1    2 2
     2    1    3 1
     3    1    4 1
     4    1    8 1
     5    4   32 1
     6    5    6 2
     7    5    7 1
     8    5    8 1
     9    5   12 1
    10    7   33 1
    11    8   34 1
    12    8   35 1
    13    9   10 2
    14    9   11 1
    15    9   12 1
    16    9   13 1
    17   13   14 1
    18   14   15 1
    19   14   36 1
    20   14   37 1
    21   15   16 1
    22   15   17 1
    23   15   38 1
    24   16   21 1
    25   17   18 1
    26   17   19 1
    27   17   39 1
    28   18   40 1
    29   19   20 1
    30   19   21 1
    31   19   41 1
    32   20   42 1
    33   21   22 1
    34   21   43 1
    35   22   23 ar
    36   22   31 ar
    37   23   24 ar
    38   23   44 1
    39   24   25 ar
    40   25   26 ar
    41   25   31 ar
    42   26   27 1
    43   26   28 ar
    44   27   45 1
    45   27   46 1
    46   28   29 ar
    47   29   30 ar
    48   29   47 1
    49   30   31 ar
@<TRIPOS>SUBSTRUCTURE
     1 ACP         1 GROUP 0 A     ****
@<TRIPOS>MOLECULE
[[[5-(6-aminopurin-9-yl)-3,4-dihydroxy-tetrahydrofuran-2-yl]methoxy-oxido-phosphoryl]oxy-hydroxy-phosphoryl]methyl-hydroxy-phosphinate
   47    49     1     0     0
SMALL
USER_CHARGES

@<TRIPOS>ATOM
      1 PG          8.1155   -0.6145    1.1082 P.3       1 ACP         1.3516
      2 O1G         8.7466   -1.1743    2.3619 O.co2     1 ACP        -0.8379
      3 O2G         8.1195   -1.3672   -0.2022 O.co2     1 ACP        -0.8379
      4 O3G         6.5989   -0.1156    1.4414 O.3       1 ACP        -0.7980
      5 PB          8.4369    2.0949   -0.5978 P.3       1 ACP         1.7688
      6 O1B         8.6754    1.4873   -1.9477 O.2       1 ACP        -0.9167
      7 O2B         9.2473    3.4646   -0.3169 O.3       1 ACP        -0.8201
      8 C3B         8.8797    1.0408    0.7996 C.3       1 ACP        -0.6097
      9 PA          5.8656    3.5048   -0.9931 P.3       1 ACP         1.5979
     10 O1A         5.5292    2.9433   -2.3574 O.co2     1 ACP        -0.8617
     11 O2A         6.3777    4.9209   -0.8447 O.co2     1 ACP        -0.8617
     12 O3A         6.9066    2.4832   -0.2608 O.3       1 ACP        -0.8283
     13 O5'         4.5669    3.2940   -0.0211 O.3       1 ACP        -0.5783
     14 C5'         4.0922    1.9801    0.2227 C.3       1 ACP         0.1980
     15 C4'         2.5944    2.0310    0.4653 C.3       1 ACP         0.0815
     16 O4'         1.9327    2.5740   -0.6889 O.3       1 ACP        -0.4127
     17 C3'         1.9685    0.6634    0.6767 C.3       1 ACP         0.0890
     18 O3'         2.1425    0.1975    1.9977 O.3       1 ACP        -0.6221
     19 C2'         0.5176    0.9128    0.3099 C.3       1 ACP         0.1067
     20 O2'        -0.2103    1.4454    1.4152 O.3       1 ACP        -0.6053
     21 C1'         0.6219    1.9765   -0.7844 C.3       1 ACP         0.4223
     22 N9          0.4237    1.4496   -2.1357 N.pl3     1 ACP        -0.6834
     23 C8         -0.7736    1.3475   -2.7932 C.ar      1 ACP         0.5614
     24 N7         -0.6356    0.8373   -3.9991 N.2       1 ACP        -0.5751
     25 C5          0.7095    0.5981   -4.1281 C.ar      1 ACP        -0.2117
     26 C6          1.4733    0.0704   -5.1643 C.ar      1 ACP         0.7177
     27 N6          0.8693   -0.3355   -6.3666 N.pl3     1 ACP        -0.9401
     28 N1          2.8130   -0.0482   -5.0009 N.ar      1 ACP        -0.8008
     29 C2          3.3380    0.3602   -3.8204 C.ar      1 ACP         0.6565
     30 N3          2.7052    0.8841   -2.7480 N.ar      1 ACP        -0.7061
     31 C4          1.3867    0.9726   -2.9785 C.ar      1 ACP         0.5715
     32 HOG3        5.9528   -0.7738    1.7755 H         1 ACP         0.4226
     33 HOB2        9.0931    4.2363   -0.9023 H         1 ACP         0.4482
     34 H3B1        8.7229    1.6217    1.7155 H         1 ACP         0.1012
     35 H3B2        9.9548    0.8459    0.7241 H         1 ACP         0.1012
     36 H5'1        4.3180    1.3550   -0.6470 H         1 ACP         0.0481
     37 H5'2        4.6085    1.5739    1.0983 H         1 ACP         0.0481
     38 H4'         2.3751    2.7029    1.3156 H         1 ACP         0.0904
     39 H3'         2.4336   -0.1217   -0.0015 H         1 ACP         0.0809
     40 HO3'        1.7160   -0.6716    2.0397 H         1 ACP         0.4528
     41 H2'         0.0316    0.0155   -0.0339 H         1 ACP         0.0594
     42 HO2'       -0.1608    0.7921    2.1351 H         1 ACP         0.4344
     43 H1'        -0.1474    2.7798   -0.6651 H         1 ACP         0.1127
     44 H8         -1.7070    1.6599   -2.3451 H         1 ACP         0.1050
     45 HN61       -0.1277   -0.2866   -6.4583 H         1 ACP         0.4211
     46 HN62        1.4308   -0.7566   -7.0823 H         1 ACP         0.4211
     47 H2          4.4130    0.2505   -3.7241 H         1 ACP         0.0375
@<TRIPOS>BOND
     1    1    2 2
     2    1    3 1
     3    1    4 1
     4    1    8 1
     5    4   32 1
     6    5    6 2
     7    5    7 1
     8    5    8 1
     9    5   12 1
    10    7   33 1
    11    8   34 1
    12    8   35 1
    13    9   10 2
    14    9   11 1
    15    9   12 1
    16    9   13 1
    17   13   14 1
    18   14   15 1
    19   14   36 1
    20   14   37 1
    21   15   16 1
    22   15   17 1
    23   15   38 1
    24   16   21 1
    25   17   18 1
    26   17   19 1
    27   17   39 1
    28   18   40 1
    29   19   20 1
    30   19   21 1
    31   19   41 1
    32   20   42 1
    33   21   22 1
    34   21   43 1
    35   22   23 ar
    36   22   31 ar
    37   23   24 ar
    38   23   44 1
    39   24   25 ar
    40   25   26 ar
    41   25   31 ar
    42   26   27 1
    43   26   28 ar
    44   27   45 1
    45   27   46 1
    46   28   29 ar
    47   29   30 ar
    48   29   47 1
    49   30   31 ar
@<TRIPOS>SUBSTRUCTURE
     1 ACP         1 GROUP 0 A     ****
@<TRIPOS>MOLECULE
[[[5-(6-aminopurin-9-yl)-3,4-dihydroxy-tetrahydrofuran-2-yl]methoxy-oxido-phosphoryl]oxy-hydroxy-phosphoryl]methyl-hydroxy-phosphinate
   47    49     1     0     0
SMALL
USER_CHARGES

@<TRIPOS>ATOM
      1 PG          2.2421    4.3941   -5.5842 P.3       1 ACP         1.3516
      2 O1G         1.8872    4.0925   -4.1467 O.co2     1 ACP        -0.8379
      3 O2G         2.9741    5.6533   -5.9872 O.co2     1 ACP        -0.8379
      4 O3G         2.9879    3.1008   -6.2410 O.3       1 ACP        -0.7980
      5 PB         -0.3581    2.8497   -6.6831 P.3       1 ACP         1.7688
      6 O1B         0.3211    1.6486   -7.2698 O.2       1 ACP        -0.9167
      7 O2B        -1.6598    3.3579   -7.4951 O.3       1 ACP        -0.8201
      8 C3B         0.6754    4.3253   -6.5638 C.3       1 ACP        -0.6097
      9 PA         -1.9759    1.6544   -4.5130 P.3       1 ACP         1.5979
     10 O1A        -1.3934    0.2587   -4.5652 O.co2     1 ACP        -0.8617
     11 O2A        -3.3453    1.9426   -5.0888 O.co2     1 ACP        -0.8617
     12 O3A        -0.8949    2.6859   -5.1695 O.3       1 ACP        -0.8283
     13 O5'        -1.9207    2.1716   -2.9622 O.3       1 ACP        -0.5783
     14 C5'        -0.7794    1.8744   -2.1748 C.3       1 ACP         0.1980
     15 C4'        -0.9699    2.4597   -0.7819 C.3       1 ACP         0.0815
     16 O4'        -2.1475    1.8640   -0.2014 O.3       1 ACP        -0.4127
     17 C3'         0.1697    2.1347    0.1695 C.3       1 ACP         0.0890
     18 O3'         0.1809    3.0982    1.2223 O.3       1 ACP        -0.6221
     19 C2'        -0.2543    0.7880    0.7187 C.3       1 ACP         0.1067
     20 O2'         0.3606    0.4944    1.9582 O.3       1 ACP        -0.6053
     21 C1'        -1.7682    0.9516    0.8548 C.3       1 ACP         0.4223
     22 N9         -2.5926   -0.2553    0.7436 N.pl3     1 ACP        -0.6834
     23 C8         -2.2879   -1.3752    0.0161 C.ar      1 ACP         0.5614
     24 N7         -3.2214   -2.2987    0.1123 N.2       1 ACP        -0.5751
     25 C5         -4.1722   -1.7531    0.9377 C.ar      1 ACP        -0.2117
     26 C6         -5.3870   -2.2342    1.4159 C.ar      1 ACP         0.7177
     27 N6         -5.8433   -3.5142    1.0574 N.pl3     1 ACP        -0.9401
     28 N1         -6.1289   -1.4512    2.2356 N.ar      1 ACP        -0.8008
     29 C2         -5.6370   -0.2275    2.5461 C.ar      1 ACP         0.6565
     30 N3         -4.4810    0.3469    2.1476 N.ar      1 ACP        -0.7061
     31 C4         -3.7996   -0.4810    1.3417 C.ar      1 ACP         0.5715
     32 HOG3        3.8247    2.7877   -5.8359 H         1 ACP         0.4226
     33 HOB2       -2.4185    2.7464   -7.6068 H         1 ACP         0.4482
     34 H3B1        0.0471    5.1403   -6.1869 H         1 ACP         0.1012
     35 H3B2        0.9686    4.5928   -7.5847 H         1 ACP         0.1012
     36 H5'1       -0.6601    0.7877   -2.1202 H         1 ACP         0.0481
     37 H5'2        0.1042    2.3072   -2.6544 H         1 ACP         0.0481
     38 H4'        -1.1469    3.5409   -0.8522 H         1 ACP         0.0904
     39 H3'         1.1601    2.1310   -0.2934 H         1 ACP         0.0809
     40 HO3'        0.9173    2.8584    1.8048 H         1 ACP         0.4528
     41 H2'        -0.0024   -0.0091    0.0062 H         1 ACP         0.0594
     42 HO2'        0.0384   -0.3797    2.2403 H         1 ACP         0.4344
     43 H1'        -2.0584    1.4255    1.8301 H         1 ACP         0.1127
     44 H8         -1.3765   -1.4593   -0.5599 H         1 ACP         0.1050
     45 HN61       -5.3086   -4.0656    0.4134 H         1 ACP         0.4211
     46 HN62       -6.7426   -3.8233    1.3745 H         1 ACP         0.4211
     47 H2         -6.2570    0.3723    3.2040 H         1 ACP         0.0375
@<TRIPOS>BOND
     1    1    2 2
     2    1    3 1
     3    1    4 1
     4    1    8 1
     5    4   32 1
     6    5    6 2
     7    5    7 1
     8    5    8 1
     9    5   12 1
    10    7   33 1
    11    8   34 1
    12    8   35 1
    13    9   10 2
    14    9   11 1
    15    9   12 1
    16    9   13 1
    17   13   14 1
    18   14   15 1
    19   14   36 1
    20   14   37 1
    21   15   16 1
    22   15   17 1
    23   15   38 1
    24   16   21 1
    25   17   18 1
    26   17   19 1
    27   17   39 1
    28   18   40 1
    29   19   20 1
    30   19   21 1
    31   19   41 1
    32   20   42 1
    33   21   22 1
    34   21   43 1
    35   22   23 ar
    36   22   31 ar
    37   23   24 ar
    38   23   44 1
    39   24   25 ar
    40   25   26 ar
    41   25   31 ar
    42   26   27 1
    43   26   28 ar
    44   27   45 1
    45   27   46 1
    46   28   29 ar
    47   29   30 ar
    48   29   47 1
    49   30   31 ar
@<TRIPOS>SUBSTRUCTURE
     1 ACP         1 GROUP 0 A     ****
@<TRIPOS>MOLECULE
[[[5-(6-aminopurin-9-yl)-3,4-dihydroxy-tetrahydrofuran-2-yl]methoxy-oxido-phosphoryl]oxy-hydroxy-phosphoryl]methyl-hydroxy-phosphinate
   47    49     1     0     0
SMALL
USER_CHARGES

@<TRIPOS>ATOM
      1 PG         -6.0810    5.4228    1.6644 P.3       1 ACP         1.3516
      2 O1G        -6.9620    6.3882    2.4229 O.co2     1 ACP        -0.8379
      3 O2G        -5.3901    4.2604    2.3393 O.co2     1 ACP        -0.8379
      4 O3G        -6.8746    4.8881    0.3438 O.3       1 ACP        -0.7980
      5 PB         -3.4912    5.6947   -0.2258 P.3       1 ACP         1.7688
      6 O1B        -2.5347    6.6803   -0.8275 O.2       1 ACP        -0.9167
      7 O2B        -4.3137    4.8065   -1.2964 O.3       1 ACP        -0.8201
      8 C3B        -4.7803    6.4206    0.8090 C.3       1 ACP        -0.6097
      9 PA         -2.0038    4.7531    2.1525 P.3       1 ACP         1.5979
     10 O1A        -2.9393    5.2969    3.2104 O.co2     1 ACP        -0.8617
     11 O2A        -0.6860    5.4370    1.8604 O.co2     1 ACP        -0.8617
     12 O3A        -2.8410    4.5946    0.7605 O.3       1 ACP        -0.8283
     13 O5'        -1.7337    3.1724    2.4753 O.3       1 ACP        -0.5783
     14 C5'        -0.8811    2.4285    1.6206 C.3       1 ACP         0.1980
     15 C4'        -0.1994    1.3333    2.4288 C.3       1 ACP         0.0815
     16 O4'        -1.1285    0.2356    2.5840 O.3       1 ACP        -0.4127
     17 C3'         1.0324    0.7610    1.7344 C.3       1 ACP         0.0890
     18 O3'         1.9175    0.2377    2.7247 O.3       1 ACP        -0.6221
     19 C2'         0.4468   -0.3802    0.9263 C.3       1 ACP         0.1067
     20 O2'         1.3993   -1.3703    0.5961 O.3       1 ACP        -0.6053
     21 C1'        -0.6159   -0.9100    1.8769 C.3       1 ACP         0.4223
     22 N9         -1.7127   -1.6108    1.2130 N.pl3     1 ACP        -0.6834
     23 C8         -2.5476   -1.0844    0.2632 C.ar      1 ACP         0.5614
     24 N7         -3.4391   -1.9591   -0.1536 N.2       1 ACP        -0.5751
     25 C5         -3.1701   -3.1016    0.5574 C.ar      1 ACP        -0.2117
     26 C6         -3.7593   -4.3620    0.5656 C.ar      1 ACP         0.7177
     27 N6         -4.8512   -4.6493   -0.2712 N.pl3     1 ACP        -0.9401
     28 N1         -3.2659   -5.3144    1.3932 N.ar      1 ACP        -0.8008
     29 C2         -2.2122   -4.9785    2.1759 C.ar      1 ACP         0.6565
     30 N3         -1.5595   -3.7985    2.2572 N.ar      1 ACP        -0.7061
     31 C4         -2.0986   -2.9054    1.4140 C.ar      1 ACP         0.5715
     32 HOG3       -7.7219    4.4098    0.4689 H         1 ACP         0.4226
     33 HOB2       -3.8177    4.2337   -1.9193 H         1 ACP         0.4482
     34 H3B1       -5.3163    7.1588    0.2017 H         1 ACP         0.1012
     35 H3B2       -4.2746    6.9710    1.6095 H         1 ACP         0.1012
     36 H5'1       -1.4802    1.9928    0.8147 H         1 ACP         0.0481
     37 H5'2       -0.1369    3.1042    1.1873 H         1 ACP         0.0481
     38 H4'         0.0403    1.7078    3.4343 H         1 ACP         0.0904
     39 H3'         1.5906    1.4859    1.1353 H         1 ACP         0.0809
     40 HO3'        2.6839   -0.1150    2.2479 H         1 ACP         0.4528
     41 H2'        -0.0017    0.0018    0.0005 H         1 ACP         0.0594
     42 HO2'        0.9369   -2.0558    0.0825 H         1 ACP         0.4344
     43 H1'        -0.1998   -1.6319    2.6178 H         1 ACP         0.1127
     44 H8         -2.4576   -0.0639   -0.0831 H         1 ACP         0.1050
     45 HN61       -5.2371   -3.9234   -0.8448 H         1 ACP         0.4211
     46 HN62       -5.2909   -5.5485   -0.2160 H         1 ACP         0.4211
     47 H2         -1.8433   -5.7650    2.8259 H         1 ACP         0.0375
@<TRIPOS>BOND
     1    1    2 2
     2    1    3 1
     3    1    4 1
     4    1    8 1
     5    4   32 1
     6    5    6 2
     7    5    7 1
     8    5    8 1
     9    5   12 1
    10    7   33 1
    11    8   34 1
    12    8   35 1
    13    9   10 2
    14    9   11 1
    15    9   12 1
    16    9   13 1
    17   13   14 1
    18   14   15 1
    19   14   36 1
    20   14   37 1
    21   15   16 1
    22   15   17 1
    23   15   38 1
    24   16   21 1
    25   17   18 1
    26   17   19 1
    27   17   39 1
    28   18   40 1
    29   19   20 1
    30   19   21 1
    31   19   41 1
    32   20   42 1
    33   21   22 1
    34   21   43 1
    35   22   23 ar
    36   22   31 ar
    37   23   24 ar
    38   23   44 1
    39   24   25 ar
    40   25   26 ar
    41   25   31 ar
    42   26   27 1
    43   26   28 ar
    44   27   45 1
    45   27   46 1
    46   28   29 ar
    47   29   30 ar
    48   29   47 1
    49   30   31 ar
@<TRIPOS>SUBSTRUCTURE
     1 ACP         1 GROUP 0 A     ****
@<TRIPOS>MOLECULE
[[[5-(6-aminopurin-9-yl)-3,4-dihydroxy-tetrahydrofuran-2-yl]methoxy-oxido-phosphoryl]oxy-hydroxy-phosphoryl]methyl-hydroxy-phosphinate
   47    49     1     0     0
SMALL
USER_CHARGES

@<TRIPOS>ATOM
      1 PG          6.8259    4.1870    4.5342 P.3       1 ACP         1.3516
      2 O1G         6.8733    3.6984    5.9634 O.co2     1 ACP        -0.8379
      3 O2G         5.5313    4.2986    3.7625 O.co2     1 ACP        -0.8379
      4 O3G         7.6509    5.5886    4.4131 O.3       1 ACP        -0.7980
      5 PB          8.2430    3.3256    1.7767 P.3       1 ACP         1.7688
      6 O1B         9.2095    2.3535    1.1692 O.2       1 ACP        -0.9167
      7 O2B         8.6623    4.8797    1.6329 O.3       1 ACP        -0.8201
      8 C3B         7.9687    3.1181    3.5492 C.3       1 ACP        -0.6097
      9 PA          6.1595    3.5245   -0.3149 P.3       1 ACP         1.5979
     10 O1A         6.6440    2.3951   -1.1979 O.co2     1 ACP        -0.8617
     11 O2A         6.3928    4.9672   -0.7072 O.co2     1 ACP        -0.8617
     12 O3A         6.7392    3.2823    1.1914 O.3       1 ACP        -0.8283
     13 O5'         4.5669    3.2940   -0.0211 O.3       1 ACP        -0.5783
     14 C5'         4.0922    1.9801    0.2227 C.3       1 ACP         0.1980
     15 C4'         2.5944    2.0310    0.4653 C.3       1 ACP         0.0815
     16 O4'         1.9327    2.5740   -0.6889 O.3       1 ACP        -0.4127
     17 C3'         1.9685    0.6634    0.6767 C.3       1 ACP         0.0890
     18 O3'         2.1425    0.1975    1.9977 O.3       1 ACP        -0.6221
     19 C2'         0.5176    0.9128    0.3099 C.3       1 ACP         0.1067
     20 O2'        -0.2103    1.4454    1.4152 O.3       1 ACP        -0.6053
     21 C1'         0.6219    1.9765   -0.7844 C.3       1 ACP         0.4223
     22 N9          0.4237    1.4496   -2.1357 N.pl3     1 ACP        -0.6834
     23 C8         -0.7736    1.3475   -2.7932 C.ar      1 ACP         0.5614
     24 N7         -0.6356    0.8373   -3.9991 N.2       1 ACP        -0.5751
     25 C5          0.7095    0.5981   -4.1281 C.ar      1 ACP        -0.2117
     26 C6          1.4733    0.0704   -5.1643 C.ar      1 ACP         0.7177
     27 N6          0.8693   -0.3355   -6.3666 N.pl3     1 ACP        -0.9401
     28 N1          2.8130   -0.0482   -5.0009 N.ar      1 ACP        -0.8008
     29 C2          3.3380    0.3602   -3.8204 C.ar      1 ACP         0.6565
     30 N3          2.7052    0.8841   -2.7480 N.ar      1 ACP        -0.7061
     31 C4          1.3867    0.9726   -2.9785 C.ar      1 ACP         0.5715
     32 HOG3        7.3542    6.3540    4.9503 H         1 ACP         0.4226
     33 HOB2        8.7755    5.2601    0.7359 H         1 ACP         0.4482
     34 H3B1        8.9440    3.1809    4.0449 H         1 ACP         0.1012
     35 H3B2        7.5993    2.0977    3.6975 H         1 ACP         0.1012
     36 H5'1        4.3180    1.3550   -0.6470 H         1 ACP         0.0481
     37 H5'2        4.6085    1.5739    1.0983 H         1 ACP         0.0481
     38 H4'         2.3751    2.7029    1.3156 H         1 ACP         0.0904
     39 H3'         2.4336   -0.1217   -0.0015 H         1 ACP         0.0809
     40 HO3'        1.7160   -0.6716    2.0397 H         1 ACP         0.4528
     41 H2'         0.0316    0.0155   -0.0339 H         1 ACP         0.0594
     42 HO2'       -0.1608    0.7921    2.1351 H         1 ACP         0.4344
     43 H1'        -0.1474    2.7798   -0.6651 H         1 ACP         0.1127
     44 H8         -1.7070    1.6599   -2.3451 H         1 ACP         0.1050
     45 HN61       -0.1277   -0.2866   -6.4583 H         1 ACP         0.4211
     46 HN62        1.4308   -0.7566   -7.0823 H         1 ACP         0.4211
     47 H2          4.4130    0.2505   -3.7241 H         1 ACP         0.0375
@<TRIPOS>BOND
     1    1    2 2
     2    1    3 1
     3    1    4 1
     4    1    8 1
     5    4   32 1
     6    5    6 2
     7    5    7 1
     8    5    8 1
     9    5   12 1
    10    7   33 1
    11    8   34 1
    12    8   35 1
    13    9   10 2
    14    9   11 1
    15    9   12 1
    16    9   13 1
    17   13   14 1
    18   14   15 1
    19   14   36 1
    20   14   37 1
    21   15   16 1
    22   15   17 1
    23   15   38 1
    24   16   21 1
    25   17   18 1
    26   17   19 1
    27   17   39 1
    28   18   40 1
    29   19   20 1
    30   19   21 1
    31   19   41 1
    32   20   42 1
    33   21   22 1
    34   21   43 1
    35   22   23 ar
    36   22   31 ar
    37   23   24 ar
    38   23   44 1
    39   24   25 ar
    40   25   26 ar
    41   25   31 ar
    42   26   27 1
    43   26   28 ar
    44   27   45 1
    45   27   46 1
    46   28   29 ar
    47   29   30 ar
    48   29   47 1
    49   30   31 ar
@<TRIPOS>SUBSTRUCTURE
     1 ACP         1 GROUP 0 A     ****
@<TRIPOS>MOLECULE
[[[5-(6-aminopurin-9-yl)-3,4-dihydroxy-tetrahydrofuran-2-yl]methoxy-oxido-phosphoryl]oxy-hydroxy-phosphoryl]methyl-hydroxy-phosphinate
   47    49     1     0     0
SMALL
USER_CHARGES

@<TRIPOS>ATOM
      1 PG          8.6827    1.5548    2.5648 P.3       1 ACP         1.3516
      2 O1G         7.2163    1.8427    2.7883 O.co2     1 ACP        -0.8379
      3 O2G         9.7592    2.5725    2.8636 O.co2     1 ACP        -0.8379
      4 O3G         9.0695    0.1352    3.2684 O.3       1 ACP        -0.7980
      5 PB          8.4369    2.0949   -0.5978 P.3       1 ACP         1.7688
      6 O1B         8.6754    1.4873   -1.9477 O.2       1 ACP        -0.9167
      7 O2B         9.2473    3.4646   -0.3169 O.3       1 ACP        -0.8201
      8 C3B         8.8797    1.0408    0.7996 C.3       1 ACP        -0.6097
      9 PA          5.8656    3.5048   -0.9931 P.3       1 ACP         1.5979
     10 O1A         5.5292    2.9433   -2.3574 O.co2     1 ACP        -0.8617
     11 O2A         6.3777    4.9209   -0.8447 O.co2     1 ACP        -0.8617
     12 O3A         6.9066    2.4832   -0.2608 O.3       1 ACP        -0.8283
     13 O5'         4.5669    3.2940   -0.0211 O.3       1 ACP        -0.5783
     14 C5'         4.0922    1.9801    0.2227 C.3       1 ACP         0.1980
     15 C4'         2.5944    2.0310    0.4653 C.3       1 ACP         0.0815
     16 O4'         1.9327    2.5740   -0.6889 O.3       1 ACP        -0.4127
     17 C3'         1.9685    0.6634    0.6767 C.3       1 ACP         0.0890
     18 O3'         2.1425    0.1975    1.9977 O.3       1 ACP        -0.6221
     19 C2'         0.5176    0.9128    0.3099 C.3       1 ACP         0.1067
     20 O2'        -0.2103    1.4454    1.4152 O.3       1 ACP        -0.6053
     21 C1'         0.6219    1.9765   -0.7844 C.3       1 ACP         0.4223
     22 N9          0.4237    1.4496   -2.1357 N.pl3     1 ACP        -0.6834
     23 C8         -0.7736    1.3475   -2.7932 C.ar      1 ACP         0.5614
     24 N7         -0.6356    0.8373   -3.9991 N.2       1 ACP        -0.5751
     25 C5          0.7095    0.5981   -4.1281 C.ar      1 ACP        -0.2117
     26 C6          1.4733    0.0704   -5.1643 C.ar      1 ACP         0.7177
     27 N6          0.8693   -0.3355   -6.3666 N.pl3     1 ACP        -0.9401
     28 N1          2.8130   -0.0482   -5.0009 N.ar      1 ACP        -0.8008
     29 C2          3.3380    0.3602   -3.8204 C.ar      1 ACP         0.6565
     30 N3          2.7052    0.8841   -2.7480 N.ar      1 ACP        -0.7061
     31 C4          1.3867    0.9726   -2.9785 C.ar      1 ACP         0.5715
     32 HOG3        8.9399    0.0421    4.2363 H         1 ACP         0.4226
     33 HOB2        9.0931    4.2363   -0.9023 H         1 ACP         0.4482
     34 H3B1        9.9324    0.7598    0.6821 H         1 ACP         0.1012
     35 H3B2        8.2907    0.1222    0.7055 H         1 ACP         0.1012
     36 H5'1        4.3180    1.3550   -0.6470 H         1 ACP         0.0481
     37 H5'2        4.6085    1.5739    1.0983 H         1 ACP         0.0481
     38 H4'         2.3751    2.7029    1.3156 H         1 ACP         0.0904
     39 H3'         2.4336   -0.1217   -0.0015 H         1 ACP         0.0809
     40 HO3'        1.7160   -0.6716    2.0397 H         1 ACP         0.4528
     41 H2'         0.0316    0.0155   -0.0339 H         1 ACP         0.0594
     42 HO2'       -0.1608    0.7921    2.1351 H         1 ACP         0.4344
     43 H1'        -0.1474    2.7798   -0.6651 H         1 ACP         0.1127
     44 H8         -1.7070    1.6599   -2.3451 H         1 ACP         0.1050
     45 HN61       -0.1277   -0.2866   -6.4583 H         1 ACP         0.4211
     46 HN62        1.4308   -0.7566   -7.0823 H         1 ACP         0.4211
     47 H2          4.4130    0.2505   -3.7241 H         1 ACP         0.0375
@<TRIPOS>BOND
     1    1    2 2
     2    1    3 1
     3    1    4 1
     4    1    8 1
     5    4   32 1
     6    5    6 2
     7    5    7 1
     8    5    8 1
     9    5   12 1
    10    7   33 1
    11    8   34 1
    12    8   35 1
    13    9   10 2
    14    9   11 1
    15    9   12 1
    16    9   13 1
    17   13   14 1
    18   14   15 1
    19   14   36 1
    20   14   37 1
    21   15   16 1
    22   15   17 1
    23   15   38 1
    24   16   21 1
    25   17   18 1
    26   17   19 1
    27   17   39 1
    28   18   40 1
    29   19   20 1
    30   19   21 1
    31   19   41 1
    32   20   42 1
    33   21   22 1
    34   21   43 1
    35   22   23 ar
    36   22   31 ar
    37   23   24 ar
    38   23   44 1
    39   24   25 ar
    40   25   26 ar
    41   25   31 ar
    42   26   27 1
    43   26   28 ar
    44   27   45 1
    45   27   46 1
    46   28   29 ar
    47   29   30 ar
    48   29   47 1
    49   30   31 ar
@<TRIPOS>SUBSTRUCTURE
     1 ACP         1 GROUP 0 A     ****
@<TRIPOS>MOLECULE
[[[5-(6-aminopurin-9-yl)-3,4-dihydroxy-tetrahydrofuran-2-yl]methoxy-oxido-phosphoryl]oxy-hydroxy-phosphoryl]methyl-hydroxy-phosphinate
   47    49     1     0     0
SMALL
USER_CHARGES

@<TRIPOS>ATOM
      1 PG         -4.4785    7.1834    2.2961 P.3       1 ACP         1.3516
      2 O1G        -5.5782    7.8128    3.1195 O.co2     1 ACP        -0.8379
      3 O2G        -4.5171    5.7331    1.8731 O.co2     1 ACP        -0.8379
      4 O3G        -4.1725    8.1187    0.9956 O.3       1 ACP        -0.7980
      5 PB         -1.2898    6.8748    2.5972 P.3       1 ACP         1.7688
      6 O1B        -0.1245    7.1997    3.4830 O.2       1 ACP        -0.9167
      7 O2B        -1.1987    7.4861    1.1040 O.3       1 ACP        -0.8201
      8 C3B        -2.8892    7.4554    3.2011 C.3       1 ACP        -0.6097
      9 PA         -1.9156    4.0919    3.3842 P.3       1 ACP         1.5979
     10 O1A        -3.2869    4.3461    3.9714 O.co2     1 ACP        -0.8617
     11 O2A        -0.7216    3.8543    4.2830 O.co2     1 ACP        -0.8617
     12 O3A        -1.5687    5.3044    2.3483 O.3       1 ACP        -0.8283
     13 O5'        -2.0402    2.8619    2.3131 O.3       1 ACP        -0.5783
     14 C5'        -0.8811    2.4285    1.6206 C.3       1 ACP         0.1980
     15 C4'        -0.1994    1.3333    2.4288 C.3       1 ACP         0.0815
     16 O4'        -1.1285    0.2356    2.5840 O.3       1 ACP        -0.4127
     17 C3'         1.0324    0.7610    1.7344 C.3       1 ACP         0.0890
     18 O3'         1.9175    0.2377    2.7247 O.3       1 ACP        -0.6221
     19 C2'         0.4468   -0.3802    0.9263 C.3       1 ACP         0.1067
     20 O2'         1.3993   -1.3703    0.5961 O.3       1 ACP        -0.6053
     21 C1'        -0.6159   -0.9100    1.8769 C.3       1 ACP         0.4223
     22 N9         -1.7127   -1.6108    1.2130 N.pl3     1 ACP        -0.6834
     23 C8         -2.8641   -1.0399    0.7392 C.ar      1 ACP         0.5614
     24 N7         -3.6659   -1.9257    0.1858 N.2       1 ACP        -0.5751
     25 C5         -3.0053   -3.1223    0.3069 C.ar      1 ACP        -0.2117
     26 C6         -3.3321   -4.4178   -0.0813 C.ar      1 ACP         0.7177
     27 N6         -4.5476   -4.6866   -0.7335 N.pl3     1 ACP        -0.9401
     28 N1         -2.4608   -5.4225    0.1773 N.ar      1 ACP        -0.8008
     29 C2         -1.3053   -5.1020    0.8081 C.ar      1 ACP         0.6565
     30 N3         -0.8788   -3.8921    1.2315 N.ar      1 ACP        -0.7061
     31 C4         -1.7870   -2.9477    0.9438 C.ar      1 ACP         0.5715
     32 HOG3       -4.8992    8.2860    0.3582 H         1 ACP         0.4226
     33 HOB2       -0.4463    7.2279    0.5301 H         1 ACP         0.4482
     34 H3B1       -2.8115    8.5373    3.3572 H         1 ACP         0.1012
     35 H3B2       -3.0430    7.0001    4.1852 H         1 ACP         0.1012
     36 H5'1       -1.1770    2.0503    0.6369 H         1 ACP         0.0481
     37 H5'2       -0.2082    3.2815    1.4877 H         1 ACP         0.0481
     38 H4'         0.0403    1.7078    3.4343 H         1 ACP         0.0904
     39 H3'         1.5906    1.4859    1.1353 H         1 ACP         0.0809
     40 HO3'        2.6839   -0.1150    2.2479 H         1 ACP         0.4528
     41 H2'        -0.0017    0.0018    0.0005 H         1 ACP         0.0594
     42 HO2'        2.0953   -0.9375    0.0709 H         1 ACP         0.4344
     43 H1'        -0.1998   -1.6319    2.6178 H         1 ACP         0.1127
     44 H8         -3.0609    0.0200    0.8250 H         1 ACP         0.1050
     45 HN61       -5.2046   -3.9433   -0.8775 H         1 ACP         0.4211
     46 HN62       -4.7849   -5.6332   -0.9625 H         1 ACP         0.4211
     47 H2         -0.6318   -5.9307    0.9993 H         1 ACP         0.0375
@<TRIPOS>BOND
     1    1    2 2
     2    1    3 1
     3    1    4 1
     4    1    8 1
     5    4   32 1
     6    5    6 2
     7    5    7 1
     8    5    8 1
     9    5   12 1
    10    7   33 1
    11    8   34 1
    12    8   35 1
    13    9   10 2
    14    9   11 1
    15    9   12 1
    16    9   13 1
    17   13   14 1
    18   14   15 1
    19   14   36 1
    20   14   37 1
    21   15   16 1
    22   15   17 1
    23   15   38 1
    24   16   21 1
    25   17   18 1
    26   17   19 1
    27   17   39 1
    28   18   40 1
    29   19   20 1
    30   19   21 1
    31   19   41 1
    32   20   42 1
    33   21   22 1
    34   21   43 1
    35   22   23 ar
    36   22   31 ar
    37   23   24 ar
    38   23   44 1
    39   24   25 ar
    40   25   26 ar
    41   25   31 ar
    42   26   27 1
    43   26   28 ar
    44   27   45 1
    45   27   46 1
    46   28   29 ar
    47   29   30 ar
    48   29   47 1
    49   30   31 ar
@<TRIPOS>SUBSTRUCTURE
     1 ACP         1 GROUP 0 A     ****
@<TRIPOS>MOLECULE
[[[5-(6-aminopurin-9-yl)-3,4-dihydroxy-tetrahydrofuran-2-yl]methoxy-oxido-phosphoryl]oxy-hydroxy-phosphoryl]methyl-hydroxy-phosphinate
   47    49     1     0     0
SMALL
USER_CHARGES

@<TRIPOS>ATOM
      1 PG         -5.3209    5.0076    1.0083 P.3       1 ACP         1.3516
      2 O1G        -6.2362    4.6477   -0.1389 O.co2     1 ACP        -0.8379
      3 O2G        -5.8230    5.7002    2.2541 O.co2     1 ACP        -0.8379
      4 O3G        -4.4436    3.6997    1.4323 O.3       1 ACP        -0.7980
      5 PB         -2.8166    5.4521   -0.9627 P.3       1 ACP         1.7688
      6 O1B        -1.7747    6.4443   -1.3850 O.2       1 ACP        -0.9167
      7 O2B        -3.7981    4.9533   -2.1458 O.3       1 ACP        -0.8201
      8 C3B        -3.9494    6.0365    0.3159 C.3       1 ACP        -0.6097
      9 PA         -1.2907    2.9171   -0.9369 P.3       1 ACP         1.5979
     10 O1A         0.0908    3.5050   -1.1264 O.co2     1 ACP        -0.8617
     11 O2A        -2.0030    2.2316   -2.0825 O.co2     1 ACP        -0.8617
     12 O3A        -2.2618    4.0770   -0.3245 O.3       1 ACP        -0.8283
     13 O5'        -1.2434    1.9102    0.3513 O.3       1 ACP        -0.5783
     14 C5'        -0.8811    2.4285    1.6206 C.3       1 ACP         0.1980
     15 C4'        -0.1994    1.3333    2.4288 C.3       1 ACP         0.0815
     16 O4'        -1.1285    0.2356    2.5840 O.3       1 ACP        -0.4127
     17 C3'         1.0324    0.7610    1.7344 C.3       1 ACP         0.0890
     18 O3'         1.9175    0.2377    2.7247 O.3       1 ACP        -0.6221
     19 C2'         0.4468   -0.3802    0.9263 C.3       1 ACP         0.1067
     20 O2'         1.3993   -1.3703    0.5961 O.3       1 ACP        -0.6053
     21 C1'        -0.6159   -0.9100    1.8769 C.3       1 ACP         0.4223
     22 N9         -1.7127   -1.6108    1.2130 N.pl3     1 ACP        -0.6834
     23 C8         -2.8641   -1.0399    0.7392 C.ar      1 ACP         0.5614
     24 N7         -3.6659   -1.9257    0.1858 N.2       1 ACP        -0.5751
     25 C5         -3.0053   -3.1223    0.3069 C.ar      1 ACP        -0.2117
     26 C6         -3.3321   -4.4178   -0.0813 C.ar      1 ACP         0.7177
     27 N6         -4.5476   -4.6866   -0.7335 N.pl3     1 ACP        -0.9401
     28 N1         -2.4608   -5.4225    0.1773 N.ar      1 ACP        -0.8008
     29 C2         -1.3053   -5.1020    0.8081 C.ar      1 ACP         0.6565
     30 N3         -0.8788   -3.8921    1.2315 N.ar      1 ACP        -0.7061
     31 C4         -1.7870   -2.9477    0.9438 C.ar      1 ACP         0.5715
     32 HOG3       -4.9182    2.8954    1.7324 H         1 ACP         0.4226
     33 HOB2       -3.4108    4.5016   -2.9255 H         1 ACP         0.4482
     34 H3B1       -4.4176    6.9567   -0.0516 H         1 ACP         0.1012
     35 H3B2       -3.3381    6.3121    1.1819 H         1 ACP         0.1012
     36 H5'1       -0.2034    3.2760    1.4766 H         1 ACP         0.0481
     37 H5'2       -1.7842    2.7761    2.1321 H         1 ACP         0.0481
     38 H4'         0.0403    1.7078    3.4343 H         1 ACP         0.0904
     39 H3'         1.5906    1.4859    1.1353 H         1 ACP         0.0809
     40 HO3'        2.1521    0.9800    3.3017 H         1 ACP         0.4528
     41 H2'        -0.0017    0.0018    0.0005 H         1 ACP         0.0594
     42 HO2'        0.9369   -2.0558    0.0825 H         1 ACP         0.4344
     43 H1'        -0.1998   -1.6319    2.6178 H         1 ACP         0.1127
     44 H8         -3.0609    0.0200    0.8250 H         1 ACP         0.1050
     45 HN61       -5.2046   -3.9433   -0.8775 H         1 ACP         0.4211
     46 HN62       -4.7849   -5.6332   -0.9625 H         1 ACP         0.4211
     47 H2         -0.6318   -5.9307    0.9993 H         1 ACP         0.0375
@<TRIPOS>BOND
     1    1    2 2
     2    1    3 1
     3    1    4 1
     4    1    8 1
     5    4   32 1
     6    5    6 2
     7    5    7 1
     8    5    8 1
     9    5   12 1
    10    7   33 1
    11    8   34 1
    12    8   35 1
    13    9   10 2
    14    9   11 1
    15    9   12 1
    16    9   13 1
    17   13   14 1
    18   14   15 1
    19   14   36 1
    20   14   37 1
    21   15   16 1
    22   15   17 1
    23   15   38 1
    24   16   21 1
    25   17   18 1
    26   17   19 1
    27   17   39 1
    28   18   40 1
    29   19   20 1
    30   19   21 1
    31   19   41 1
    32   20   42 1
    33   21   22 1
    34   21   43 1
    35   22   23 ar
    36   22   31 ar
    37   23   24 ar
    38   23   44 1
    39   24   25 ar
    40   25   26 ar
    41   25   31 ar
    42   26   27 1
    43   26   28 ar
    44   27   45 1
    45   27   46 1
    46   28   29 ar
    47   29   30 ar
    48   29   47 1
    49   30   31 ar
@<TRIPOS>SUBSTRUCTURE
     1 ACP         1 GROUP 0 A     ****
@<TRIPOS>MOLECULE
[[[5-(6-aminopurin-9-yl)-3,4-dihydroxy-tetrahydrofuran-2-yl]methoxy-oxido-phosphoryl]oxy-hydroxy-phosphoryl]methyl-hydroxy-phosphinate
   47    49     1     0     0
SMALL
USER_CHARGES

@<TRIPOS>ATOM
      1 PG          2.2421    4.3941   -5.5842 P.3       1 ACP         1.3516
      2 O1G         3.1758    3.3523   -6.1556 O.co2     1 ACP        -0.8379
      3 O2G         1.8619    4.4213   -4.1219 O.co2     1 ACP        -0.8379
      4 O3G         2.7412    5.8779   -6.0415 O.3       1 ACP        -0.7980
      5 PB         -0.3581    2.8497   -6.6831 P.3       1 ACP         1.7688
      6 O1B         0.3211    1.6486   -7.2698 O.2       1 ACP        -0.9167
      7 O2B        -1.6598    3.3579   -7.4951 O.3       1 ACP        -0.8201
      8 C3B         0.6754    4.3253   -6.5638 C.3       1 ACP        -0.6097
      9 PA         -1.9759    1.6544   -4.5130 P.3       1 ACP         1.5979
     10 O1A        -1.3934    0.2587   -4.5652 O.co2     1 ACP        -0.8617
     11 O2A        -3.3453    1.9426   -5.0888 O.co2     1 ACP        -0.8617
     12 O3A        -0.8949    2.6859   -5.1695 O.3       1 ACP        -0.8283
     13 O5'        -1.9207    2.1716   -2.9622 O.3       1 ACP        -0.5783
     14 C5'        -0.7794    1.8744   -2.1748 C.3       1 ACP         0.1980
     15 C4'        -0.9699    2.4597   -0.7819 C.3       1 ACP         0.0815
     16 O4'        -2.1475    1.8640   -0.2014 O.3       1 ACP        -0.4127
     17 C3'         0.1697    2.1347    0.1695 C.3       1 ACP         0.0890
     18 O3'         0.1809    3.0982    1.2223 O.3       1 ACP        -0.6221
     19 C2'        -0.2543    0.7880    0.7187 C.3       1 ACP         0.1067
     20 O2'         0.3606    0.4944    1.9582 O.3       1 ACP        -0.6053
     21 C1'        -1.7682    0.9516    0.8548 C.3       1 ACP         0.4223
     22 N9         -2.5926   -0.2553    0.7436 N.pl3     1 ACP        -0.6834
     23 C8         -3.5599   -0.4866   -0.1983 C.ar      1 ACP         0.5614
     24 N7         -4.1294   -1.6639   -0.0461 N.2       1 ACP        -0.5751
     25 C5         -3.5041   -2.2191    1.0420 C.ar      1 ACP        -0.2117
     26 C6         -3.6605   -3.4390    1.6925 C.ar      1 ACP         0.7177
     27 N6         -4.6108   -4.3735    1.2468 N.pl3     1 ACP        -0.9401
     28 N1         -2.8820   -3.7179    2.7657 N.ar      1 ACP        -0.8008
     29 C2         -1.9837   -2.7784    3.1481 C.ar      1 ACP         0.6565
     30 N3         -1.7408   -1.5668    2.6022 N.ar      1 ACP        -0.7061
     31 C4         -2.5438   -1.3578    1.5483 C.ar      1 ACP         0.5715
     32 HOG3        3.6386    6.1721   -5.7760 H         1 ACP         0.4226
     33 HOB2       -2.4185    2.7464   -7.6068 H         1 ACP         0.4482
     34 H3B1        0.0471    5.1403   -6.1869 H         1 ACP         0.1012
     35 H3B2        0.9686    4.5928   -7.5847 H         1 ACP         0.1012
     36 H5'1       -0.6601    0.7877   -2.1202 H         1 ACP         0.0481
     37 H5'2        0.1042    2.3072   -2.6544 H         1 ACP         0.0481
     38 H4'        -1.1469    3.5409   -0.8522 H         1 ACP         0.0904
     39 H3'         1.1601    2.1310   -0.2934 H         1 ACP         0.0809
     40 HO3'        0.3098    3.9616    0.8017 H         1 ACP         0.4528
     41 H2'        -0.0024   -0.0091    0.0062 H         1 ACP         0.0594
     42 HO2'        0.0972    1.1923    2.5835 H         1 ACP         0.4344
     43 H1'        -2.0584    1.4255    1.8301 H         1 ACP         0.1127
     44 H8         -3.8030    0.2355   -0.9657 H         1 ACP         0.1050
     45 HN61       -5.2130   -4.1372    0.4810 H         1 ACP         0.4211
     46 HN62       -4.7404   -5.2263    1.7576 H         1 ACP         0.4211
     47 H2         -1.3778   -3.0348    4.0107 H         1 ACP         0.0375
@<TRIPOS>BOND
     1    1    2 2
     2    1    3 1
     3    1    4 1
     4    1    8 1
     5    4   32 1
     6    5    6 2
     7    5    7 1
     8    5    8 1
     9    5   12 1
    10    7   33 1
    11    8   34 1
    12    8   35 1
    13    9   10 2
    14    9   11 1
    15    9   12 1
    16    9   13 1
    17   13   14 1
    18   14   15 1
    19   14   36 1
    20   14   37 1
    21   15   16 1
    22   15   17 1
    23   15   38 1
    24   16   21 1
    25   17   18 1
    26   17   19 1
    27   17   39 1
    28   18   40 1
    29   19   20 1
    30   19   21 1
    31   19   41 1
    32   20   42 1
    33   21   22 1
    34   21   43 1
    35   22   23 ar
    36   22   31 ar
    37   23   24 ar
    38   23   44 1
    39   24   25 ar
    40   25   26 ar
    41   25   31 ar
    42   26   27 1
    43   26   28 ar
    44   27   45 1
    45   27   46 1
    46   28   29 ar
    47   29   30 ar
    48   29   47 1
    49   30   31 ar
@<TRIPOS>SUBSTRUCTURE
     1 ACP         1 GROUP 0 A     ****
@<TRIPOS>MOLECULE
[[[5-(6-aminopurin-9-yl)-3,4-dihydroxy-tetrahydrofuran-2-yl]methoxy-oxido-phosphoryl]oxy-hydroxy-phosphoryl]methyl-hydroxy-phosphinate
   47    49     1     0     0
SMALL
USER_CHARGES

@<TRIPOS>ATOM
      1 PG         -2.5336    7.1729   -2.0589 P.3       1 ACP         1.3516
      2 O1G        -2.3300    8.6597   -1.8827 O.co2     1 ACP        -0.8379
      3 O2G        -3.6831    6.4341   -1.4134 O.co2     1 ACP        -0.8379
      4 O3G        -2.4753    6.8025   -3.6462 O.3       1 ACP        -0.7980
      5 PB         -0.7406    4.5467   -1.5665 P.3       1 ACP         1.7688
      6 O1B         0.6023    4.0733   -1.0969 O.2       1 ACP        -0.9167
      7 O2B        -1.1098    4.1421   -3.0869 O.3       1 ACP        -0.8201
      8 C3B        -0.9708    6.3371   -1.5317 C.3       1 ACP        -0.6097
      9 PA         -2.5572    2.5164   -0.4117 P.3       1 ACP         1.5979
     10 O1A        -2.7118    1.7917   -1.7311 O.co2     1 ACP        -0.8617
     11 O2A        -3.7101    2.5987    0.5649 O.co2     1 ACP        -0.8617
     12 O3A        -2.0088    4.0232   -0.7157 O.3       1 ACP        -0.8283
     13 O5'        -1.2434    1.9102    0.3513 O.3       1 ACP        -0.5783
     14 C5'        -0.8811    2.4285    1.6206 C.3       1 ACP         0.1980
     15 C4'        -0.1994    1.3333    2.4288 C.3       1 ACP         0.0815
     16 O4'        -1.1285    0.2356    2.5840 O.3       1 ACP        -0.4127
     17 C3'         1.0324    0.7610    1.7344 C.3       1 ACP         0.0890
     18 O3'         1.9175    0.2377    2.7247 O.3       1 ACP        -0.6221
     19 C2'         0.4468   -0.3802    0.9263 C.3       1 ACP         0.1067
     20 O2'         1.3993   -1.3703    0.5961 O.3       1 ACP        -0.6053
     21 C1'        -0.6159   -0.9100    1.8769 C.3       1 ACP         0.4223
     22 N9         -1.7127   -1.6108    1.2130 N.pl3     1 ACP        -0.6834
     23 C8         -2.8641   -1.0399    0.7392 C.ar      1 ACP         0.5614
     24 N7         -3.6659   -1.9257    0.1858 N.2       1 ACP        -0.5751
     25 C5         -3.0053   -3.1223    0.3069 C.ar      1 ACP        -0.2117
     26 C6         -3.3321   -4.4178   -0.0813 C.ar      1 ACP         0.7177
     27 N6         -4.5476   -4.6866   -0.7335 N.pl3     1 ACP        -0.9401
     28 N1         -2.4608   -5.4225    0.1773 N.ar      1 ACP        -0.8008
     29 C2         -1.3053   -5.1020    0.8081 C.ar      1 ACP         0.6565
     30 N3         -0.8788   -3.8921    1.2315 N.ar      1 ACP        -0.7061
     31 C4         -1.7870   -2.9477    0.9438 C.ar      1 ACP         0.5715
     32 HOG3       -3.1286    7.2187   -4.2480 H         1 ACP         0.4226
     33 HOB2       -1.1476    3.1925   -3.3299 H         1 ACP         0.4482
     34 H3B1       -0.1708    6.7857   -2.1316 H         1 ACP         0.1012
     35 H3B2       -0.8137    6.6589   -0.4966 H         1 ACP         0.1012
     36 H5'1       -0.2034    3.2760    1.4766 H         1 ACP         0.0481
     37 H5'2       -1.7842    2.7761    2.1321 H         1 ACP         0.0481
     38 H4'         0.0403    1.7078    3.4343 H         1 ACP         0.0904
     39 H3'         1.5906    1.4859    1.1353 H         1 ACP         0.0809
     40 HO3'        2.6839   -0.1150    2.2479 H         1 ACP         0.4528
     41 H2'        -0.0017    0.0018    0.0005 H         1 ACP         0.0594
     42 HO2'        2.0953   -0.9375    0.0709 H         1 ACP         0.4344
     43 H1'        -0.1998   -1.6319    2.6178 H         1 ACP         0.1127
     44 H8         -3.0609    0.0200    0.8250 H         1 ACP         0.1050
     45 HN61       -5.2046   -3.9433   -0.8775 H         1 ACP         0.4211
     46 HN62       -4.7849   -5.6332   -0.9625 H         1 ACP         0.4211
     47 H2         -0.6318   -5.9307    0.9993 H         1 ACP         0.0375
@<TRIPOS>BOND
     1    1    2 2
     2    1    3 1
     3    1    4 1
     4    1    8 1
     5    4   32 1
     6    5    6 2
     7    5    7 1
     8    5    8 1
     9    5   12 1
    10    7   33 1
    11    8   34 1
    12    8   35 1
    13    9   10 2
    14    9   11 1
    15    9   12 1
    16    9   13 1
    17   13   14 1
    18   14   15 1
    19   14   36 1
    20   14   37 1
    21   15   16 1
    22   15   17 1
    23   15   38 1
    24   16   21 1
    25   17   18 1
    26   17   19 1
    27   17   39 1
    28   18   40 1
    29   19   20 1
    30   19   21 1
    31   19   41 1
    32   20   42 1
    33   21   22 1
    34   21   43 1
    35   22   23 ar
    36   22   31 ar
    37   23   24 ar
    38   23   44 1
    39   24   25 ar
    40   25   26 ar
    41   25   31 ar
    42   26   27 1
    43   26   28 ar
    44   27   45 1
    45   27   46 1
    46   28   29 ar
    47   29   30 ar
    48   29   47 1
    49   30   31 ar
@<TRIPOS>SUBSTRUCTURE
     1 ACP         1 GROUP 0 A     ****
@<TRIPOS>MOLECULE
[[[5-(6-aminopurin-9-yl)-3,4-dihydroxy-tetrahydrofuran-2-yl]methoxy-oxido-phosphoryl]oxy-hydroxy-phosphoryl]methyl-hydroxy-phosphinate
   47    49     1     0     0
SMALL
USER_CHARGES

@<TRIPOS>ATOM
      1 PG          6.8704    6.2792    2.4503 P.3       1 ACP         1.3516
      2 O1G         6.6969    7.6829    1.9185 O.co2     1 ACP        -0.8379
      3 O2G         7.5268    5.9964    3.7819 O.co2     1 ACP        -0.8379
      4 O3G         5.4455    5.4897    2.3706 O.3       1 ACP        -0.7980
      5 PB          8.2238    3.5724    1.3567 P.3       1 ACP         1.7688
      6 O1B         9.1080    3.2698    2.5291 O.2       1 ACP        -0.9167
      7 O2B         8.8429    3.1730   -0.0817 O.3       1 ACP        -0.8201
      8 C3B         7.7837    5.3129    1.1652 C.3       1 ACP        -0.6097
      9 PA          6.3567    1.2769    1.3738 P.3       1 ACP         1.5979
     10 O1A         6.7670    0.6862    2.7051 O.co2     1 ACP        -0.8617
     11 O2A         6.7982    0.6375    0.0753 O.co2     1 ACP        -0.8617
     12 O3A         6.7784    2.8535    1.3607 O.3       1 ACP        -0.8283
     13 O5'         4.7294    1.4426    1.3699 O.3       1 ACP        -0.5783
     14 C5'         4.0922    1.9801    0.2227 C.3       1 ACP         0.1980
     15 C4'         2.5944    2.0310    0.4653 C.3       1 ACP         0.0815
     16 O4'         1.9327    2.5740   -0.6889 O.3       1 ACP        -0.4127
     17 C3'         1.9685    0.6634    0.6767 C.3       1 ACP         0.0890
     18 O3'         2.1425    0.1975    1.9977 O.3       1 ACP        -0.6221
     19 C2'         0.5176    0.9128    0.3099 C.3       1 ACP         0.1067
     20 O2'        -0.2103    1.4454    1.4152 O.3       1 ACP        -0.6053
     21 C1'         0.6219    1.9765   -0.7844 C.3       1 ACP         0.4223
     22 N9          0.4237    1.4496   -2.1357 N.pl3     1 ACP        -0.6834
     23 C8         -0.7736    1.3475   -2.7932 C.ar      1 ACP         0.5614
     24 N7         -0.6356    0.8373   -3.9991 N.2       1 ACP        -0.5751
     25 C5          0.7095    0.5981   -4.1281 C.ar      1 ACP        -0.2117
     26 C6          1.4733    0.0704   -5.1643 C.ar      1 ACP         0.7177
     27 N6          0.8693   -0.3355   -6.3666 N.pl3     1 ACP        -0.9401
     28 N1          2.8130   -0.0482   -5.0009 N.ar      1 ACP        -0.8008
     29 C2          3.3380    0.3602   -3.8204 C.ar      1 ACP         0.6565
     30 N3          2.7052    0.8841   -2.7480 N.ar      1 ACP        -0.7061
     31 C4          1.3867    0.9726   -2.9785 C.ar      1 ACP         0.5715
     32 HOG3        4.6809    5.8533    2.8660 H         1 ACP         0.4226
     33 HOB2        9.0745    2.2358   -0.2554 H         1 ACP         0.4482
     34 H3B1        7.1986    5.4073    0.2434 H         1 ACP         0.1012
     35 H3B2        8.7179    5.8629    1.0092 H         1 ACP         0.1012
     36 H5'1        4.4844    2.9853    0.0382 H         1 ACP         0.0481
     37 H5'2        4.3192    1.3445   -0.6390 H         1 ACP         0.0481
     38 H4'         2.3751    2.7029    1.3156 H         1 ACP         0.0904
     39 H3'         2.4336   -0.1217   -0.0015 H         1 ACP         0.0809
     40 HO3'        3.0987    0.1465    2.1461 H         1 ACP         0.4528
     41 H2'         0.0316    0.0155   -0.0339 H         1 ACP         0.0594
     42 HO2'       -0.1608    0.7921    2.1351 H         1 ACP         0.4344
     43 H1'        -0.1474    2.7798   -0.6651 H         1 ACP         0.1127
     44 H8         -1.7070    1.6599   -2.3451 H         1 ACP         0.1050
     45 HN61       -0.1277   -0.2866   -6.4583 H         1 ACP         0.4211
     46 HN62        1.4308   -0.7566   -7.0823 H         1 ACP         0.4211
     47 H2          4.4130    0.2505   -3.7241 H         1 ACP         0.0375
@<TRIPOS>BOND
     1    1    2 2
     2    1    3 1
     3    1    4 1
     4    1    8 1
     5    4   32 1
     6    5    6 2
     7    5    7 1
     8    5    8 1
     9    5   12 1
    10    7   33 1
    11    8   34 1
    12    8   35 1
    13    9   10 2
    14    9   11 1
    15    9   12 1
    16    9   13 1
    17   13   14 1
    18   14   15 1
    19   14   36 1
    20   14   37 1
    21   15   16 1
    22   15   17 1
    23   15   38 1
    24   16   21 1
    25   17   18 1
    26   17   19 1
    27   17   39 1
    28   18   40 1
    29   19   20 1
    30   19   21 1
    31   19   41 1
    32   20   42 1
    33   21   22 1
    34   21   43 1
    35   22   23 ar
    36   22   31 ar
    37   23   24 ar
    38   23   44 1
    39   24   25 ar
    40   25   26 ar
    41   25   31 ar
    42   26   27 1
    43   26   28 ar
    44   27   45 1
    45   27   46 1
    46   28   29 ar
    47   29   30 ar
    48   29   47 1
    49   30   31 ar
@<TRIPOS>SUBSTRUCTURE
     1 ACP         1 GROUP 0 A     ****
@<TRIPOS>MOLECULE
[[[5-(6-aminopurin-9-yl)-3,4-dihydroxy-tetrahydrofuran-2-yl]methoxy-oxido-phosphoryl]oxy-hydroxy-phosphoryl]methyl-hydroxy-phosphinate
   47    49     1     0     0
SMALL
USER_CHARGES

@<TRIPOS>ATOM
      1 PG         -2.9084    0.5902   -6.7158 P.3       1 ACP         1.3516
      2 O1G        -2.3904   -0.4605   -5.7613 O.co2     1 ACP        -0.8379
      3 O2G        -3.6094    0.2327   -8.0059 O.co2     1 ACP        -0.8379
      4 O3G        -3.8083    1.6733   -5.8929 O.3       1 ACP        -0.7980
      5 PB         -0.5679    2.6497   -5.9189 P.3       1 ACP         1.7688
      6 O1B        -1.3875    3.6372   -5.1435 O.2       1 ACP        -0.9167
      7 O2B         0.6467    3.2937   -6.7684 O.3       1 ACP        -0.8201
      8 C3B        -1.4874    1.6934   -7.1435 C.3       1 ACP        -0.6097
      9 PA          1.2408    1.5709   -3.8403 P.3       1 ACP         1.5979
     10 O1A         2.4069    2.4148   -4.3070 O.co2     1 ACP        -0.8617
     11 O2A         1.4651    0.1803   -3.2876 O.co2     1 ACP        -0.8617
     12 O3A         0.1481    1.4927   -5.0500 O.3       1 ACP        -0.8283
     13 O5'         0.3757    2.4481   -2.7643 O.3       1 ACP        -0.5783
     14 C5'        -0.7794    1.8744   -2.1748 C.3       1 ACP         0.1980
     15 C4'        -0.9699    2.4597   -0.7819 C.3       1 ACP         0.0815
     16 O4'        -2.1475    1.8640   -0.2014 O.3       1 ACP        -0.4127
     17 C3'         0.1697    2.1347    0.1695 C.3       1 ACP         0.0890
     18 O3'         0.1809    3.0982    1.2223 O.3       1 ACP        -0.6221
     19 C2'        -0.2543    0.7880    0.7187 C.3       1 ACP         0.1067
     20 O2'         0.3606    0.4944    1.9582 O.3       1 ACP        -0.6053
     21 C1'        -1.7682    0.9516    0.8548 C.3       1 ACP         0.4223
     22 N9         -2.5926   -0.2553    0.7436 N.pl3     1 ACP        -0.6834
     23 C8         -3.5599   -0.4866   -0.1983 C.ar      1 ACP         0.5614
     24 N7         -4.1294   -1.6639   -0.0461 N.2       1 ACP        -0.5751
     25 C5         -3.5041   -2.2191    1.0420 C.ar      1 ACP        -0.2117
     26 C6         -3.6605   -3.4390    1.6925 C.ar      1 ACP         0.7177
     27 N6         -4.6108   -4.3735    1.2468 N.pl3     1 ACP        -0.9401
     28 N1         -2.8820   -3.7179    2.7657 N.ar      1 ACP        -0.8008
     29 C2         -1.9837   -2.7784    3.1481 C.ar      1 ACP         0.6565
     30 N3         -1.7408   -1.5668    2.6022 N.ar      1 ACP        -0.7061
     31 C4         -2.5438   -1.3578    1.5483 C.ar      1 ACP         0.5715
     32 HOG3       -4.6034    1.3540   -5.4151 H         1 ACP         0.4226
     33 HOB2        1.3469    3.7907   -6.2941 H         1 ACP         0.4482
     34 H3B1       -0.7683    1.0653   -7.6814 H         1 ACP         0.1012
     35 H3B2       -1.8928    2.4082   -7.8676 H         1 ACP         0.1012
     36 H5'1       -1.6463    2.0967   -2.8051 H         1 ACP         0.0481
     37 H5'2       -0.6469    0.7893   -2.1194 H         1 ACP         0.0481
     38 H4'        -1.1469    3.5409   -0.8522 H         1 ACP         0.0904
     39 H3'         1.1601    2.1310   -0.2934 H         1 ACP         0.0809
     40 HO3'        0.9173    2.8584    1.8048 H         1 ACP         0.4528
     41 H2'        -0.0024   -0.0091    0.0062 H         1 ACP         0.0594
     42 HO2'        1.3225    0.4909    1.8095 H         1 ACP         0.4344
     43 H1'        -2.0584    1.4255    1.8301 H         1 ACP         0.1127
     44 H8         -3.8030    0.2355   -0.9657 H         1 ACP         0.1050
     45 HN61       -5.2130   -4.1372    0.4810 H         1 ACP         0.4211
     46 HN62       -4.7404   -5.2263    1.7576 H         1 ACP         0.4211
     47 H2         -1.3778   -3.0348    4.0107 H         1 ACP         0.0375
@<TRIPOS>BOND
     1    1    2 2
     2    1    3 1
     3    1    4 1
     4    1    8 1
     5    4   32 1
     6    5    6 2
     7    5    7 1
     8    5    8 1
     9    5   12 1
    10    7   33 1
    11    8   34 1
    12    8   35 1
    13    9   10 2
    14    9   11 1
    15    9   12 1
    16    9   13 1
    17   13   14 1
    18   14   15 1
    19   14   36 1
    20   14   37 1
    21   15   16 1
    22   15   17 1
    23   15   38 1
    24   16   21 1
    25   17   18 1
    26   17   19 1
    27   17   39 1
    28   18   40 1
    29   19   20 1
    30   19   21 1
    31   19   41 1
    32   20   42 1
    33   21   22 1
    34   21   43 1
    35   22   23 ar
    36   22   31 ar
    37   23   24 ar
    38   23   44 1
    39   24   25 ar
    40   25   26 ar
    41   25   31 ar
    42   26   27 1
    43   26   28 ar
    44   27   45 1
    45   27   46 1
    46   28   29 ar
    47   29   30 ar
    48   29   47 1
    49   30   31 ar
@<TRIPOS>SUBSTRUCTURE
     1 ACP         1 GROUP 0 A     ****
@<TRIPOS>MOLECULE
[[[5-(6-aminopurin-9-yl)-3,4-dihydroxy-tetrahydrofuran-2-yl]methoxy-oxido-phosphoryl]oxy-hydroxy-phosphoryl]methyl-hydroxy-phosphinate
   47    49     1     0     0
SMALL
USER_CHARGES

@<TRIPOS>ATOM
      1 PG          8.6827    1.5548    2.5648 P.3       1 ACP         1.3516
      2 O1G         7.2163    1.8427    2.7883 O.co2     1 ACP        -0.8379
      3 O2G         9.7592    2.5725    2.8636 O.co2     1 ACP        -0.8379
      4 O3G         9.0695    0.1352    3.2684 O.3       1 ACP        -0.7980
      5 PB          8.4369    2.0949   -0.5978 P.3       1 ACP         1.7688
      6 O1B         8.6754    1.4873   -1.9477 O.2       1 ACP        -0.9167
      7 O2B         9.2473    3.4646   -0.3169 O.3       1 ACP        -0.8201
      8 C3B         8.8797    1.0408    0.7996 C.3       1 ACP        -0.6097
      9 PA          5.8656    3.5048   -0.9931 P.3       1 ACP         1.5979
     10 O1A         5.5292    2.9433   -2.3574 O.co2     1 ACP        -0.8617
     11 O2A         6.3777    4.9209   -0.8447 O.co2     1 ACP        -0.8617
     12 O3A         6.9066    2.4832   -0.2608 O.3       1 ACP        -0.8283
     13 O5'         4.5669    3.2940   -0.0211 O.3       1 ACP        -0.5783
     14 C5'         4.0922    1.9801    0.2227 C.3       1 ACP         0.1980
     15 C4'         2.5944    2.0310    0.4653 C.3       1 ACP         0.0815
     16 O4'         1.9327    2.5740   -0.6889 O.3       1 ACP        -0.4127
     17 C3'         1.9685    0.6634    0.6767 C.3       1 ACP         0.0890
     18 O3'         2.1425    0.1975    1.9977 O.3       1 ACP        -0.6221
     19 C2'         0.5176    0.9128    0.3099 C.3       1 ACP         0.1067
     20 O2'        -0.2103    1.4454    1.4152 O.3       1 ACP        -0.6053
     21 C1'         0.6219    1.9765   -0.7844 C.3       1 ACP         0.4223
     22 N9          0.4237    1.4496   -2.1357 N.pl3     1 ACP        -0.6834
     23 C8          1.4026    0.9717   -2.9660 C.ar      1 ACP         0.5614
     24 N7          0.9183    0.5619   -4.1197 N.2       1 ACP        -0.5751
     25 C5         -0.4330    0.7845   -4.0331 C.ar      1 ACP        -0.2117
     26 C6         -1.4794    0.5615   -4.9225 C.ar      1 ACP         0.7177
     27 N6         -1.2378    0.0044   -6.1899 N.pl3     1 ACP        -0.9401
     28 N1         -2.7406    0.8885   -4.5512 N.ar      1 ACP        -0.8008
     29 C2         -2.9113    1.4216   -3.3172 C.ar      1 ACP         0.6565
     30 N3         -1.9824    1.6843   -2.3721 N.ar      1 ACP        -0.7061
     31 C4         -0.7613    1.3370   -2.8054 C.ar      1 ACP         0.5715
     32 HOG3        8.9399    0.0421    4.2363 H         1 ACP         0.4226
     33 HOB2        9.0931    4.2363   -0.9023 H         1 ACP         0.4482
     34 H3B1        9.9324    0.7598    0.6821 H         1 ACP         0.1012
     35 H3B2        8.2907    0.1222    0.7055 H         1 ACP         0.1012
     36 H5'1        4.3180    1.3550   -0.6470 H         1 ACP         0.0481
     37 H5'2        4.6085    1.5739    1.0983 H         1 ACP         0.0481
     38 H4'         2.3751    2.7029    1.3156 H         1 ACP         0.0904
     39 H3'         2.4336   -0.1217   -0.0015 H         1 ACP         0.0809
     40 HO3'        3.0987    0.1465    2.1461 H         1 ACP         0.4528
     41 H2'         0.0316    0.0155   -0.0339 H         1 ACP         0.0594
     42 HO2'       -0.1608    0.7921    2.1351 H         1 ACP         0.4344
     43 H1'        -0.1474    2.7798   -0.6651 H         1 ACP         0.1127
     44 H8          2.4442    0.9470   -2.6763 H         1 ACP         0.1050
     45 HN61       -0.2955   -0.1901   -6.4713 H         1 ACP         0.4211
     46 HN62       -1.9987   -0.1045   -6.8334 H         1 ACP         0.4211
     47 H2         -3.9335    1.6716   -3.0534 H         1 ACP         0.0375
@<TRIPOS>BOND
     1    1    2 2
     2    1    3 1
     3    1    4 1
     4    1    8 1
     5    4   32 1
     6    5    6 2
     7    5    7 1
     8    5    8 1
     9    5   12 1
    10    7   33 1
    11    8   34 1
    12    8   35 1
    13    9   10 2
    14    9   11 1
    15    9   12 1
    16    9   13 1
    17   13   14 1
    18   14   15 1
    19   14   36 1
    20   14   37 1
    21   15   16 1
    22   15   17 1
    23   15   38 1
    24   16   21 1
    25   17   18 1
    26   17   19 1
    27   17   39 1
    28   18   40 1
    29   19   20 1
    30   19   21 1
    31   19   41 1
    32   20   42 1
    33   21   22 1
    34   21   43 1
    35   22   23 ar
    36   22   31 ar
    37   23   24 ar
    38   23   44 1
    39   24   25 ar
    40   25   26 ar
    41   25   31 ar
    42   26   27 1
    43   26   28 ar
    44   27   45 1
    45   27   46 1
    46   28   29 ar
    47   29   30 ar
    48   29   47 1
    49   30   31 ar
@<TRIPOS>SUBSTRUCTURE
     1 ACP         1 GROUP 0 A     ****
@<TRIPOS>MOLECULE
[[[5-(6-aminopurin-9-yl)-3,4-dihydroxy-tetrahydrofuran-2-yl]methoxy-oxido-phosphoryl]oxy-hydroxy-phosphoryl]methyl-hydroxy-phosphinate
   47    49     1     0     0
SMALL
USER_CHARGES

@<TRIPOS>ATOM
      1 PG         -4.0999    7.7671    2.4880 P.3       1 ACP         1.3516
      2 O1G        -5.6104    7.8060    2.5080 O.co2     1 ACP        -0.8379
      3 O2G        -3.2639    9.0071    2.2711 O.co2     1 ACP        -0.8379
      4 O3G        -3.5609    6.9749    3.8079 O.3       1 ACP        -0.7980
      5 PB         -1.8779    6.1374    0.8265 P.3       1 ACP         1.7688
      6 O1B        -1.0588    7.2966    0.3434 O.2       1 ACP        -0.9167
      7 O2B        -1.9875    4.9039   -0.2119 O.3       1 ACP        -0.8201
      8 C3B        -3.5983    6.5289    1.2096 C.3       1 ACP        -0.6097
      9 PA          0.0332    4.7085    2.5761 P.3       1 ACP         1.5979
     10 O1A        -0.1161    4.0779    3.9435 O.co2     1 ACP        -0.8617
     11 O2A         1.1770    5.6544    2.2817 O.co2     1 ACP        -0.8617
     12 O3A        -1.3743    5.4401    2.1925 O.3       1 ACP        -0.8283
     13 O5'         0.0181    3.5132    1.4596 O.3       1 ACP        -0.5783
     14 C5'        -0.8811    2.4285    1.6206 C.3       1 ACP         0.1980
     15 C4'        -0.1994    1.3333    2.4288 C.3       1 ACP         0.0815
     16 O4'        -1.1285    0.2356    2.5840 O.3       1 ACP        -0.4127
     17 C3'         1.0324    0.7610    1.7344 C.3       1 ACP         0.0890
     18 O3'         1.9175    0.2377    2.7247 O.3       1 ACP        -0.6221
     19 C2'         0.4468   -0.3802    0.9263 C.3       1 ACP         0.1067
     20 O2'         1.3993   -1.3703    0.5961 O.3       1 ACP        -0.6053
     21 C1'        -0.6159   -0.9100    1.8769 C.3       1 ACP         0.4223
     22 N9         -1.7127   -1.6108    1.2130 N.pl3     1 ACP        -0.6834
     23 C8         -1.7712   -2.9546    0.9544 C.ar      1 ACP         0.5614
     24 N7         -2.8883   -3.2948    0.3462 N.2       1 ACP        -0.5751
     25 C5         -3.5834   -2.1202    0.2043 C.ar      1 ACP        -0.2117
     26 C6         -4.8225   -1.8251   -0.3554 C.ar      1 ACP         0.7177
     27 N6         -5.6154   -2.8395   -0.9189 N.pl3     1 ACP        -0.9401
     28 N1         -5.2589   -0.5425   -0.3507 N.ar      1 ACP        -0.8008
     29 C2         -4.4510    0.3913    0.2069 C.ar      1 ACP         0.6565
     30 N3         -3.2368    0.2296    0.7767 N.ar      1 ACP        -0.7061
     31 C4         -2.8684   -1.0596    0.7376 C.ar      1 ACP         0.5715
     32 HOG3       -3.7915    7.3295    4.6929 H         1 ACP         0.4226
     33 HOB2       -1.1666    4.4499   -0.4985 H         1 ACP         0.4482
     34 H3B1       -4.0982    5.5928    1.4828 H         1 ACP         0.1012
     35 H3B2       -4.0602    6.8794    0.2804 H         1 ACP         0.1012
     36 H5'1       -1.7769    2.7851    2.1387 H         1 ACP         0.0481
     37 H5'2       -1.1653    2.0543    0.6320 H         1 ACP         0.0481
     38 H4'         0.0403    1.7078    3.4343 H         1 ACP         0.0904
     39 H3'         1.5906    1.4859    1.1353 H         1 ACP         0.0809
     40 HO3'        2.6839   -0.1150    2.2479 H         1 ACP         0.4528
     41 H2'        -0.0017    0.0018    0.0005 H         1 ACP         0.0594
     42 HO2'        2.0953   -0.9375    0.0709 H         1 ACP         0.4344
     43 H1'        -0.1998   -1.6319    2.6178 H         1 ACP         0.1127
     44 H8         -0.9745   -3.6312    1.2318 H         1 ACP         0.1050
     45 HN61       -5.2619   -3.7766   -0.9586 H         1 ACP         0.4211
     46 HN62       -6.4834   -2.5990   -1.3590 H         1 ACP         0.4211
     47 H2         -4.8317    1.4071    0.1930 H         1 ACP         0.0375
@<TRIPOS>BOND
     1    1    2 2
     2    1    3 1
     3    1    4 1
     4    1    8 1
     5    4   32 1
     6    5    6 2
     7    5    7 1
     8    5    8 1
     9    5   12 1
    10    7   33 1
    11    8   34 1
    12    8   35 1
    13    9   10 2
    14    9   11 1
    15    9   12 1
    16    9   13 1
    17   13   14 1
    18   14   15 1
    19   14   36 1
    20   14   37 1
    21   15   16 1
    22   15   17 1
    23   15   38 1
    24   16   21 1
    25   17   18 1
    26   17   19 1
    27   17   39 1
    28   18   40 1
    29   19   20 1
    30   19   21 1
    31   19   41 1
    32   20   42 1
    33   21   22 1
    34   21   43 1
    35   22   23 ar
    36   22   31 ar
    37   23   24 ar
    38   23   44 1
    39   24   25 ar
    40   25   26 ar
    41   25   31 ar
    42   26   27 1
    43   26   28 ar
    44   27   45 1
    45   27   46 1
    46   28   29 ar
    47   29   30 ar
    48   29   47 1
    49   30   31 ar
@<TRIPOS>SUBSTRUCTURE
     1 ACP         1 GROUP 0 A     ****
@<TRIPOS>MOLECULE
[[[5-(6-aminopurin-9-yl)-3,4-dihydroxy-tetrahydrofuran-2-yl]methoxy-oxido-phosphoryl]oxy-hydroxy-phosphoryl]methyl-hydroxy-phosphinate
   47    49     1     0     0
SMALL
USER_CHARGES

@<TRIPOS>ATOM
      1 PG          0.0766    5.9347   -5.8780 P.3       1 ACP         1.3516
      2 O1G        -0.3500    5.6840   -4.4502 O.co2     1 ACP        -0.8379
      3 O2G        -0.8516    6.5466   -6.9016 O.co2     1 ACP        -0.8379
      4 O3G         1.4963    6.7374   -5.8862 O.3       1 ACP        -0.7980
      5 PB         -0.3581    2.8497   -6.6831 P.3       1 ACP         1.7688
      6 O1B         0.3211    1.6486   -7.2698 O.2       1 ACP        -0.9167
      7 O2B        -1.6598    3.3579   -7.4951 O.3       1 ACP        -0.8201
      8 C3B         0.6754    4.3253   -6.5638 C.3       1 ACP        -0.6097
      9 PA         -1.9759    1.6544   -4.5130 P.3       1 ACP         1.5979
     10 O1A        -1.3934    0.2587   -4.5652 O.co2     1 ACP        -0.8617
     11 O2A        -3.3453    1.9426   -5.0888 O.co2     1 ACP        -0.8617
     12 O3A        -0.8949    2.6859   -5.1695 O.3       1 ACP        -0.8283
     13 O5'        -1.9207    2.1716   -2.9622 O.3       1 ACP        -0.5783
     14 C5'        -0.7794    1.8744   -2.1748 C.3       1 ACP         0.1980
     15 C4'        -0.9699    2.4597   -0.7819 C.3       1 ACP         0.0815
     16 O4'        -2.1475    1.8640   -0.2014 O.3       1 ACP        -0.4127
     17 C3'         0.1697    2.1347    0.1695 C.3       1 ACP         0.0890
     18 O3'         0.1809    3.0982    1.2223 O.3       1 ACP        -0.6221
     19 C2'        -0.2543    0.7880    0.7187 C.3       1 ACP         0.1067
     20 O2'         0.3606    0.4944    1.9582 O.3       1 ACP        -0.6053
     21 C1'        -1.7682    0.9516    0.8548 C.3       1 ACP         0.4223
     22 N9         -2.5926   -0.2553    0.7436 N.pl3     1 ACP        -0.6834
     23 C8         -2.2879   -1.3752    0.0161 C.ar      1 ACP         0.5614
     24 N7         -3.2214   -2.2987    0.1123 N.2       1 ACP        -0.5751
     25 C5         -4.1722   -1.7531    0.9377 C.ar      1 ACP        -0.2117
     26 C6         -5.3870   -2.2342    1.4159 C.ar      1 ACP         0.7177
     27 N6         -5.8433   -3.5142    1.0574 N.pl3     1 ACP        -0.9401
     28 N1         -6.1289   -1.4512    2.2356 N.ar      1 ACP        -0.8008
     29 C2         -5.6370   -0.2275    2.5461 C.ar      1 ACP         0.6565
     30 N3         -4.4810    0.3469    2.1476 N.ar      1 ACP        -0.7061
     31 C4         -3.7996   -0.4810    1.3417 C.ar      1 ACP         0.5715
     32 HOG3        1.5391    7.6165   -5.4532 H         1 ACP         0.4226
     33 HOB2       -2.4185    2.7464   -7.6068 H         1 ACP         0.4482
     34 H3B1        1.0539    4.5468   -7.5681 H         1 ACP         0.1012
     35 H3B2        1.5406    4.0598   -5.9469 H         1 ACP         0.1012
     36 H5'1       -0.6601    0.7877   -2.1202 H         1 ACP         0.0481
     37 H5'2        0.1042    2.3072   -2.6544 H         1 ACP         0.0481
     38 H4'        -1.1469    3.5409   -0.8522 H         1 ACP         0.0904
     39 H3'         1.1601    2.1310   -0.2934 H         1 ACP         0.0809
     40 HO3'        0.9173    2.8584    1.8048 H         1 ACP         0.4528
     41 H2'        -0.0024   -0.0091    0.0062 H         1 ACP         0.0594
     42 HO2'        0.0384   -0.3797    2.2403 H         1 ACP         0.4344
     43 H1'        -2.0584    1.4255    1.8301 H         1 ACP         0.1127
     44 H8         -1.3765   -1.4593   -0.5599 H         1 ACP         0.1050
     45 HN61       -5.3086   -4.0656    0.4134 H         1 ACP         0.4211
     46 HN62       -6.7426   -3.8233    1.3745 H         1 ACP         0.4211
     47 H2         -6.2570    0.3723    3.2040 H         1 ACP         0.0375
@<TRIPOS>BOND
     1    1    2 2
     2    1    3 1
     3    1    4 1
     4    1    8 1
     5    4   32 1
     6    5    6 2
     7    5    7 1
     8    5    8 1
     9    5   12 1
    10    7   33 1
    11    8   34 1
    12    8   35 1
    13    9   10 2
    14    9   11 1
    15    9   12 1
    16    9   13 1
    17   13   14 1
    18   14   15 1
    19   14   36 1
    20   14   37 1
    21   15   16 1
    22   15   17 1
    23   15   38 1
    24   16   21 1
    25   17   18 1
    26   17   19 1
    27   17   39 1
    28   18   40 1
    29   19   20 1
    30   19   21 1
    31   19   41 1
    32   20   42 1
    33   21   22 1
    34   21   43 1
    35   22   23 ar
    36   22   31 ar
    37   23   24 ar
    38   23   44 1
    39   24   25 ar
    40   25   26 ar
    41   25   31 ar
    42   26   27 1
    43   26   28 ar
    44   27   45 1
    45   27   46 1
    46   28   29 ar
    47   29   30 ar
    48   29   47 1
    49   30   31 ar
@<TRIPOS>SUBSTRUCTURE
     1 ACP         1 GROUP 0 A     ****
@<TRIPOS>MOLECULE
[[[5-(6-aminopurin-9-yl)-3,4-dihydroxy-tetrahydrofuran-2-yl]methoxy-oxido-phosphoryl]oxy-hydroxy-phosphoryl]methyl-hydroxy-phosphinate
   47    49     1     0     0
SMALL
USER_CHARGES

@<TRIPOS>ATOM
      1 PG          9.2521    5.2785    1.3520 P.3       1 ACP         1.3516
      2 O1G         9.6961    6.6131    0.7997 O.co2     1 ACP        -0.8379
      3 O2G         9.4721    3.9831    0.6055 O.co2     1 ACP        -0.8379
      4 O3G         9.7915    5.1193    2.8830 O.3       1 ACP        -0.7980
      5 PB          6.4680    4.0506    2.3983 P.3       1 ACP         1.7688
      6 O1B         5.0187    4.3642    2.6204 O.2       1 ACP        -0.9167
      7 O2B         7.2814    3.6221    3.7274 O.3       1 ACP        -0.8201
      8 C3B         7.4442    5.4083    1.7176 C.3       1 ACP        -0.6097
      9 PA          6.3567    1.2769    1.3738 P.3       1 ACP         1.5979
     10 O1A         6.7670    0.6862    2.7051 O.co2     1 ACP        -0.8617
     11 O2A         6.7982    0.6375    0.0753 O.co2     1 ACP        -0.8617
     12 O3A         6.7784    2.8535    1.3607 O.3       1 ACP        -0.8283
     13 O5'         4.7294    1.4426    1.3699 O.3       1 ACP        -0.5783
     14 C5'         4.0922    1.9801    0.2227 C.3       1 ACP         0.1980
     15 C4'         2.5944    2.0310    0.4653 C.3       1 ACP         0.0815
     16 O4'         1.9327    2.5740   -0.6889 O.3       1 ACP        -0.4127
     17 C3'         1.9685    0.6634    0.6767 C.3       1 ACP         0.0890
     18 O3'         2.1425    0.1975    1.9977 O.3       1 ACP        -0.6221
     19 C2'         0.5176    0.9128    0.3099 C.3       1 ACP         0.1067
     20 O2'        -0.2103    1.4454    1.4152 O.3       1 ACP        -0.6053
     21 C1'         0.6219    1.9765   -0.7844 C.3       1 ACP         0.4223
     22 N9          0.4237    1.4496   -2.1357 N.pl3     1 ACP        -0.6834
     23 C8         -0.7736    1.3475   -2.7932 C.ar      1 ACP         0.5614
     24 N7         -0.6356    0.8373   -3.9991 N.2       1 ACP        -0.5751
     25 C5          0.7095    0.5981   -4.1281 C.ar      1 ACP        -0.2117
     26 C6          1.4733    0.0704   -5.1643 C.ar      1 ACP         0.7177
     27 N6          0.8693   -0.3355   -6.3666 N.pl3     1 ACP        -0.9401
     28 N1          2.8130   -0.0482   -5.0009 N.ar      1 ACP        -0.8008
     29 C2          3.3380    0.3602   -3.8204 C.ar      1 ACP         0.6565
     30 N3          2.7052    0.8841   -2.7480 N.ar      1 ACP        -0.7061
     31 C4          1.3867    0.9726   -2.9785 C.ar      1 ACP         0.5715
     32 HOG3       10.7587    5.1485    3.0436 H         1 ACP         0.4226
     33 HOB2        6.9903    2.8303    4.2278 H         1 ACP         0.4482
     34 H3B1        7.3325    6.2663    2.3901 H         1 ACP         0.1012
     35 H3B2        6.9825    5.6865    0.7642 H         1 ACP         0.1012
     36 H5'1        4.4844    2.9853    0.0382 H         1 ACP         0.0481
     37 H5'2        4.3192    1.3445   -0.6390 H         1 ACP         0.0481
     38 H4'         2.3751    2.7029    1.3156 H         1 ACP         0.0904
     39 H3'         2.4336   -0.1217   -0.0015 H         1 ACP         0.0809
     40 HO3'        3.0987    0.1465    2.1461 H         1 ACP         0.4528
     41 H2'         0.0316    0.0155   -0.0339 H         1 ACP         0.0594
     42 HO2'       -0.1608    0.7921    2.1351 H         1 ACP         0.4344
     43 H1'        -0.1474    2.7798   -0.6651 H         1 ACP         0.1127
     44 H8         -1.7070    1.6599   -2.3451 H         1 ACP         0.1050
     45 HN61       -0.1277   -0.2866   -6.4583 H         1 ACP         0.4211
     46 HN62        1.4308   -0.7566   -7.0823 H         1 ACP         0.4211
     47 H2          4.4130    0.2505   -3.7241 H         1 ACP         0.0375
@<TRIPOS>BOND
     1    1    2 2
     2    1    3 1
     3    1    4 1
     4    1    8 1
     5    4   32 1
     6    5    6 2
     7    5    7 1
     8    5    8 1
     9    5   12 1
    10    7   33 1
    11    8   34 1
    12    8   35 1
    13    9   10 2
    14    9   11 1
    15    9   12 1
    16    9   13 1
    17   13   14 1
    18   14   15 1
    19   14   36 1
    20   14   37 1
    21   15   16 1
    22   15   17 1
    23   15   38 1
    24   16   21 1
    25   17   18 1
    26   17   19 1
    27   17   39 1
    28   18   40 1
    29   19   20 1
    30   19   21 1
    31   19   41 1
    32   20   42 1
    33   21   22 1
    34   21   43 1
    35   22   23 ar
    36   22   31 ar
    37   23   24 ar
    38   23   44 1
    39   24   25 ar
    40   25   26 ar
    41   25   31 ar
    42   26   27 1
    43   26   28 ar
    44   27   45 1
    45   27   46 1
    46   28   29 ar
    47   29   30 ar
    48   29   47 1
    49   30   31 ar
@<TRIPOS>SUBSTRUCTURE
     1 ACP         1 GROUP 0 A     ****
@<TRIPOS>MOLECULE
[[[5-(6-aminopurin-9-yl)-3,4-dihydroxy-tetrahydrofuran-2-yl]methoxy-oxido-phosphoryl]oxy-hydroxy-phosphoryl]methyl-hydroxy-phosphinate
   47    49     1     0     0
SMALL
USER_CHARGES

@<TRIPOS>ATOM
      1 PG          2.5534    3.5046   -7.2589 P.3       1 ACP         1.3516
      2 O1G         2.0038    4.4932   -8.2610 O.co2     1 ACP        -0.8379
      3 O2G         2.2615    2.0242   -7.3430 O.co2     1 ACP        -0.8379
      4 O3G         4.1606    3.7314   -7.0998 O.3       1 ACP        -0.7980
      5 PB          0.3094    4.2694   -5.0832 P.3       1 ACP         1.7688
      6 O1B        -0.4784    5.2473   -5.9024 O.2       1 ACP        -0.9167
      7 O2B         0.3999    4.6205   -3.5083 O.3       1 ACP        -0.8201
      8 C3B         2.0349    4.0779   -5.5792 C.3       1 ACP        -0.6097
      9 PA         -1.6496    2.0939   -4.6531 P.3       1 ACP         1.5979
     10 O1A        -1.5270    0.5872   -4.7215 O.co2     1 ACP        -0.8617
     11 O2A        -2.7687    2.8121   -5.3753 O.co2     1 ACP        -0.8617
     12 O3A        -0.2222    2.7452   -5.1025 O.3       1 ACP        -0.8283
     13 O5'        -1.6519    2.5337   -3.0776 O.3       1 ACP        -0.5783
     14 C5'        -0.7794    1.8744   -2.1748 C.3       1 ACP         0.1980
     15 C4'        -0.9699    2.4597   -0.7819 C.3       1 ACP         0.0815
     16 O4'        -2.1475    1.8640   -0.2014 O.3       1 ACP        -0.4127
     17 C3'         0.1697    2.1347    0.1695 C.3       1 ACP         0.0890
     18 O3'         0.1809    3.0982    1.2223 O.3       1 ACP        -0.6221
     19 C2'        -0.2543    0.7880    0.7187 C.3       1 ACP         0.1067
     20 O2'         0.3606    0.4944    1.9582 O.3       1 ACP        -0.6053
     21 C1'        -1.7682    0.9516    0.8548 C.3       1 ACP         0.4223
     22 N9         -2.5926   -0.2553    0.7436 N.pl3     1 ACP        -0.6834
     23 C8         -3.5599   -0.4866   -0.1983 C.ar      1 ACP         0.5614
     24 N7         -4.1294   -1.6639   -0.0461 N.2       1 ACP        -0.5751
     25 C5         -3.5041   -2.2191    1.0420 C.ar      1 ACP        -0.2117
     26 C6         -3.6605   -3.4390    1.6925 C.ar      1 ACP         0.7177
     27 N6         -4.6108   -4.3735    1.2468 N.pl3     1 ACP        -0.9401
     28 N1         -2.8820   -3.7179    2.7657 N.ar      1 ACP        -0.8008
     29 C2         -1.9837   -2.7784    3.1481 C.ar      1 ACP         0.6565
     30 N3         -1.7408   -1.5668    2.6022 N.ar      1 ACP        -0.7061
     31 C4         -2.5438   -1.3578    1.5483 C.ar      1 ACP         0.5715
     32 HOG3        4.7285    3.6273   -7.8928 H         1 ACP         0.4226
     33 HOB2       -0.4286    4.6809   -2.9867 H         1 ACP         0.4482
     34 H3B1        2.5107    3.3950   -4.8664 H         1 ACP         0.1012
     35 H3B2        2.5130    5.0553   -5.4543 H         1 ACP         0.1012
     36 H5'1       -1.0116    0.8047   -2.1754 H         1 ACP         0.0481
     37 H5'2        0.2522    2.0163   -2.5120 H         1 ACP         0.0481
     38 H4'        -1.1469    3.5409   -0.8522 H         1 ACP         0.0904
     39 H3'         1.1601    2.1310   -0.2934 H         1 ACP         0.0809
     40 HO3'        0.9173    2.8584    1.8048 H         1 ACP         0.4528
     41 H2'        -0.0024   -0.0091    0.0062 H         1 ACP         0.0594
     42 HO2'        0.0384   -0.3797    2.2403 H         1 ACP         0.4344
     43 H1'        -2.0584    1.4255    1.8301 H         1 ACP         0.1127
     44 H8         -3.8030    0.2355   -0.9657 H         1 ACP         0.1050
     45 HN61       -5.2130   -4.1372    0.4810 H         1 ACP         0.4211
     46 HN62       -4.7404   -5.2263    1.7576 H         1 ACP         0.4211
     47 H2         -1.3778   -3.0348    4.0107 H         1 ACP         0.0375
@<TRIPOS>BOND
     1    1    2 2
     2    1    3 1
     3    1    4 1
     4    1    8 1
     5    4   32 1
     6    5    6 2
     7    5    7 1
     8    5    8 1
     9    5   12 1
    10    7   33 1
    11    8   34 1
    12    8   35 1
    13    9   10 2
    14    9   11 1
    15    9   12 1
    16    9   13 1
    17   13   14 1
    18   14   15 1
    19   14   36 1
    20   14   37 1
    21   15   16 1
    22   15   17 1
    23   15   38 1
    24   16   21 1
    25   17   18 1
    26   17   19 1
    27   17   39 1
    28   18   40 1
    29   19   20 1
    30   19   21 1
    31   19   41 1
    32   20   42 1
    33   21   22 1
    34   21   43 1
    35   22   23 ar
    36   22   31 ar
    37   23   24 ar
    38   23   44 1
    39   24   25 ar
    40   25   26 ar
    41   25   31 ar
    42   26   27 1
    43   26   28 ar
    44   27   45 1
    45   27   46 1
    46   28   29 ar
    47   29   30 ar
    48   29   47 1
    49   30   31 ar
@<TRIPOS>SUBSTRUCTURE
     1 ACP         1 GROUP 0 A     ****
@<TRIPOS>MOLECULE
[[[5-(6-aminopurin-9-yl)-3,4-dihydroxy-tetrahydrofuran-2-yl]methoxy-oxido-phosphoryl]oxy-hydroxy-phosphoryl]methyl-hydroxy-phosphinate
   47    49     1     0     0
SMALL
USER_CHARGES

@<TRIPOS>ATOM
      1 PG         -2.9222   -0.3423   -5.8131 P.3       1 ACP         1.3516
      2 O1G        -2.1415   -1.4786   -5.1946 O.co2     1 ACP        -0.8379
      3 O2G        -4.2213   -0.5647   -6.5526 O.co2     1 ACP        -0.8379
      4 O3G        -3.1237    0.8408   -4.7088 O.3       1 ACP        -0.7980
      5 PB         -0.0444    0.8793   -6.5748 P.3       1 ACP         1.7688
      6 O1B         0.7088    1.6193   -7.6393 O.2       1 ACP        -0.9167
      7 O2B         0.5498   -0.5791   -6.2118 O.3       1 ACP        -0.8201
      8 C3B        -1.7783    0.5522   -6.9577 C.3       1 ACP        -0.6097
      9 PA          1.0092    2.1061   -4.0969 P.3       1 ACP         1.5979
     10 O1A         1.7816    3.2382   -4.7385 O.co2     1 ACP        -0.8617
     11 O2A         1.7282    0.8918   -3.5506 O.co2     1 ACP        -0.8617
     12 O3A        -0.1446    1.6158   -5.1418 O.3       1 ACP        -0.8283
     13 O5'         0.0525    2.7389   -2.9307 O.3       1 ACP        -0.5783
     14 C5'        -0.7794    1.8744   -2.1748 C.3       1 ACP         0.1980
     15 C4'        -0.9699    2.4597   -0.7819 C.3       1 ACP         0.0815
     16 O4'        -2.1475    1.8640   -0.2014 O.3       1 ACP        -0.4127
     17 C3'         0.1697    2.1347    0.1695 C.3       1 ACP         0.0890
     18 O3'         0.1809    3.0982    1.2223 O.3       1 ACP        -0.6221
     19 C2'        -0.2543    0.7880    0.7187 C.3       1 ACP         0.1067
     20 O2'         0.3606    0.4944    1.9582 O.3       1 ACP        -0.6053
     21 C1'        -1.7682    0.9516    0.8548 C.3       1 ACP         0.4223
     22 N9         -2.5926   -0.2553    0.7436 N.pl3     1 ACP        -0.6834
     23 C8         -2.6464   -1.0979   -0.3350 C.ar      1 ACP         0.5614
     24 N7         -3.4765   -2.1012   -0.1401 N.2       1 ACP        -0.5751
     25 C5         -3.9826   -1.8994    1.1194 C.ar      1 ACP        -0.2117
     26 C6         -4.8981   -2.6116    1.8877 C.ar      1 ACP         0.7177
     27 N6         -5.4931   -3.7842    1.3916 N.pl3     1 ACP        -0.9401
     28 N1         -5.2111   -2.1602    3.1262 N.ar      1 ACP        -0.8008
     29 C2         -4.6051   -1.0248    3.5500 C.ar      1 ACP         0.6565
     30 N3         -3.7075   -0.2510    2.9016 N.ar      1 ACP        -0.7061
     31 C4         -3.4448   -0.7551    1.6866 C.ar      1 ACP         0.5715
     32 HOG3       -3.6023    0.6296   -3.8789 H         1 ACP         0.4226
     33 HOB2        1.4689   -0.6475   -5.8763 H         1 ACP         0.4482
     34 H3B1       -1.8105    0.0045   -7.9064 H         1 ACP         0.1012
     35 H3B2       -2.2550    1.5228   -7.1320 H         1 ACP         0.1012
     36 H5'1       -1.7435    1.7763   -2.6838 H         1 ACP         0.0481
     37 H5'2       -0.3053    0.8897   -2.1148 H         1 ACP         0.0481
     38 H4'        -1.1469    3.5409   -0.8522 H         1 ACP         0.0904
     39 H3'         1.1601    2.1310   -0.2934 H         1 ACP         0.0809
     40 HO3'        0.3098    3.9616    0.8017 H         1 ACP         0.4528
     41 H2'        -0.0024   -0.0091    0.0062 H         1 ACP         0.0594
     42 HO2'        1.3225    0.4909    1.8095 H         1 ACP         0.4344
     43 H1'        -2.0584    1.4255    1.8301 H         1 ACP         0.1127
     44 H8         -2.0609   -0.9301   -1.2286 H         1 ACP         0.1050
     45 HN61       -5.2894   -4.0827    0.4566 H         1 ACP         0.4211
     46 HN62       -6.1852   -4.2564    1.9420 H         1 ACP         0.4211
     47 H2         -4.8793   -0.6924    4.5457 H         1 ACP         0.0375
@<TRIPOS>BOND
     1    1    2 2
     2    1    3 1
     3    1    4 1
     4    1    8 1
     5    4   32 1
     6    5    6 2
     7    5    7 1
     8    5    8 1
     9    5   12 1
    10    7   33 1
    11    8   34 1
    12    8   35 1
    13    9   10 2
    14    9   11 1
    15    9   12 1
    16    9   13 1
    17   13   14 1
    18   14   15 1
    19   14   36 1
    20   14   37 1
    21   15   16 1
    22   15   17 1
    23   15   38 1
    24   16   21 1
    25   17   18 1
    26   17   19 1
    27   17   39 1
    28   18   40 1
    29   19   20 1
    30   19   21 1
    31   19   41 1
    32   20   42 1
    33   21   22 1
    34   21   43 1
    35   22   23 ar
    36   22   31 ar
    37   23   24 ar
    38   23   44 1
    39   24   25 ar
    40   25   26 ar
    41   25   31 ar
    42   26   27 1
    43   26   28 ar
    44   27   45 1
    45   27   46 1
    46   28   29 ar
    47   29   30 ar
    48   29   47 1
    49   30   31 ar
@<TRIPOS>SUBSTRUCTURE
     1 ACP         1 GROUP 0 A     ****
@<TRIPOS>MOLECULE
[[[5-(6-aminopurin-9-yl)-3,4-dihydroxy-tetrahydrofuran-2-yl]methoxy-oxido-phosphoryl]oxy-hydroxy-phosphoryl]methyl-hydroxy-phosphinate
   47    49     1     0     0
SMALL
USER_CHARGES

@<TRIPOS>ATOM
      1 PG          0.4619    3.7251   -7.2705 P.3       1 ACP         1.3516
      2 O1G         0.2266    4.1870   -5.8511 O.co2     1 ACP        -0.8379
      3 O2G        -0.4349    4.1414   -8.4133 O.co2     1 ACP        -0.8379
      4 O3G         2.0180    3.9955   -7.6772 O.3       1 ACP        -0.7980
      5 PB         -0.8716    0.8544   -6.6920 P.3       1 ACP         1.7688
      6 O1B        -0.6274   -0.6237   -6.7527 O.2       1 ACP        -0.9167
      7 O2B        -2.1160    1.3741   -7.5826 O.3       1 ACP        -0.8201
      8 C3B         0.5091    1.8768   -7.2469 C.3       1 ACP        -0.6097
      9 PA         -2.3606    1.1373   -4.1506 P.3       1 ACP         1.5979
     10 O1A        -2.1701   -0.2747   -3.6407 O.co2     1 ACP        -0.8617
     11 O2A        -3.6866    1.5770   -4.7320 O.co2     1 ACP        -0.8617
     12 O3A        -1.1756    1.4581   -5.2260 O.3       1 ACP        -0.8283
     13 O5'        -1.9207    2.1716   -2.9622 O.3       1 ACP        -0.5783
     14 C5'        -0.7794    1.8744   -2.1748 C.3       1 ACP         0.1980
     15 C4'        -0.9699    2.4597   -0.7819 C.3       1 ACP         0.0815
     16 O4'        -2.1475    1.8640   -0.2014 O.3       1 ACP        -0.4127
     17 C3'         0.1697    2.1347    0.1695 C.3       1 ACP         0.0890
     18 O3'         0.1809    3.0982    1.2223 O.3       1 ACP        -0.6221
     19 C2'        -0.2543    0.7880    0.7187 C.3       1 ACP         0.1067
     20 O2'         0.3606    0.4944    1.9582 O.3       1 ACP        -0.6053
     21 C1'        -1.7682    0.9516    0.8548 C.3       1 ACP         0.4223
     22 N9         -2.5926   -0.2553    0.7436 N.pl3     1 ACP        -0.6834
     23 C8         -3.5599   -0.4866   -0.1983 C.ar      1 ACP         0.5614
     24 N7         -4.1294   -1.6639   -0.0461 N.2       1 ACP        -0.5751
     25 C5         -3.5041   -2.2191    1.0420 C.ar      1 ACP        -0.2117
     26 C6         -3.6605   -3.4390    1.6925 C.ar      1 ACP         0.7177
     27 N6         -4.6108   -4.3735    1.2468 N.pl3     1 ACP        -0.9401
     28 N1         -2.8820   -3.7179    2.7657 N.ar      1 ACP        -0.8008
     29 C2         -1.9837   -2.7784    3.1481 C.ar      1 ACP         0.6565
     30 N3         -1.7408   -1.5668    2.6022 N.ar      1 ACP        -0.7061
     31 C4         -2.5438   -1.3578    1.5483 C.ar      1 ACP         0.5715
     32 HOG3        2.3543    4.9167   -7.6538 H         1 ACP         0.4226
     33 HOB2       -3.0133    1.0256   -7.3943 H         1 ACP         0.4482
     34 H3B1        0.7608    1.5677   -8.2678 H         1 ACP         0.1012
     35 H3B2        1.3673    1.6241   -6.6151 H         1 ACP         0.1012
     36 H5'1       -0.6601    0.7877   -2.1202 H         1 ACP         0.0481
     37 H5'2        0.1042    2.3072   -2.6544 H         1 ACP         0.0481
     38 H4'        -1.1469    3.5409   -0.8522 H         1 ACP         0.0904
     39 H3'         1.1601    2.1310   -0.2934 H         1 ACP         0.0809
     40 HO3'        0.9173    2.8584    1.8048 H         1 ACP         0.4528
     41 H2'        -0.0024   -0.0091    0.0062 H         1 ACP         0.0594
     42 HO2'        1.3225    0.4909    1.8095 H         1 ACP         0.4344
     43 H1'        -2.0584    1.4255    1.8301 H         1 ACP         0.1127
     44 H8         -3.8030    0.2355   -0.9657 H         1 ACP         0.1050
     45 HN61       -5.2130   -4.1372    0.4810 H         1 ACP         0.4211
     46 HN62       -4.7404   -5.2263    1.7576 H         1 ACP         0.4211
     47 H2         -1.3778   -3.0348    4.0107 H         1 ACP         0.0375
@<TRIPOS>BOND
     1    1    2 2
     2    1    3 1
     3    1    4 1
     4    1    8 1
     5    4   32 1
     6    5    6 2
     7    5    7 1
     8    5    8 1
     9    5   12 1
    10    7   33 1
    11    8   34 1
    12    8   35 1
    13    9   10 2
    14    9   11 1
    15    9   12 1
    16    9   13 1
    17   13   14 1
    18   14   15 1
    19   14   36 1
    20   14   37 1
    21   15   16 1
    22   15   17 1
    23   15   38 1
    24   16   21 1
    25   17   18 1
    26   17   19 1
    27   17   39 1
    28   18   40 1
    29   19   20 1
    30   19   21 1
    31   19   41 1
    32   20   42 1
    33   21   22 1
    34   21   43 1
    35   22   23 ar
    36   22   31 ar
    37   23   24 ar
    38   23   44 1
    39   24   25 ar
    40   25   26 ar
    41   25   31 ar
    42   26   27 1
    43   26   28 ar
    44   27   45 1
    45   27   46 1
    46   28   29 ar
    47   29   30 ar
    48   29   47 1
    49   30   31 ar
@<TRIPOS>SUBSTRUCTURE
     1 ACP         1 GROUP 0 A     ****
@<TRIPOS>MOLECULE
[[[5-(6-aminopurin-9-yl)-3,4-dihydroxy-tetrahydrofuran-2-yl]methoxy-oxido-phosphoryl]oxy-hydroxy-phosphoryl]methyl-hydroxy-phosphinate
   47    49     1     0     0
SMALL
USER_CHARGES

@<TRIPOS>ATOM
      1 PG         -3.3215    4.5718    5.6521 P.3       1 ACP         1.3516
      2 O1G        -2.8551    3.2427    6.1990 O.co2     1 ACP        -0.8379
      3 O2G        -4.1728    4.6782    4.4079 O.co2     1 ACP        -0.8379
      4 O3G        -4.0041    5.4415    6.8511 O.3       1 ACP        -0.7980
      5 PB         -0.4691    5.1522    4.2806 P.3       1 ACP         1.7688
      6 O1B         0.2159    3.8637    4.6252 O.2       1 ACP        -0.9167
      7 O2B         0.4906    6.4525    4.2805 O.3       1 ACP        -0.8201
      8 C3B        -1.8185    5.6157    5.3870 C.3       1 ACP        -0.6097
      9 PA         -0.5788    5.0303    1.3262 P.3       1 ACP         1.5979
     10 O1A         0.5862    5.9826    1.1662 O.co2     1 ACP        -0.8617
     11 O2A        -1.7218    5.0335    0.3346 O.co2     1 ACP        -0.8617
     12 O3A        -1.1812    5.2058    2.8328 O.3       1 ACP        -0.8283
     13 O5'         0.0181    3.5132    1.4596 O.3       1 ACP        -0.5783
     14 C5'        -0.8811    2.4285    1.6206 C.3       1 ACP         0.1980
     15 C4'        -0.1994    1.3333    2.4288 C.3       1 ACP         0.0815
     16 O4'        -1.1285    0.2356    2.5840 O.3       1 ACP        -0.4127
     17 C3'         1.0324    0.7610    1.7344 C.3       1 ACP         0.0890
     18 O3'         1.9175    0.2377    2.7247 O.3       1 ACP        -0.6221
     19 C2'         0.4468   -0.3802    0.9263 C.3       1 ACP         0.1067
     20 O2'         1.3993   -1.3703    0.5961 O.3       1 ACP        -0.6053
     21 C1'        -0.6159   -0.9100    1.8769 C.3       1 ACP         0.4223
     22 N9         -1.7127   -1.6108    1.2130 N.pl3     1 ACP        -0.6834
     23 C8         -2.0877   -2.9101    1.4304 C.ar      1 ACP         0.5614
     24 N7         -3.1152   -3.2613    0.6857 N.2       1 ACP        -0.5751
     25 C5         -3.4186   -2.1409   -0.0462 C.ar      1 ACP        -0.2117
     26 C6         -4.3953   -1.8809   -1.0023 C.ar      1 ACP         0.7177
     27 N6         -5.3118   -2.8767   -1.3812 N.pl3     1 ACP        -0.9401
     28 N1         -4.4538   -0.6507   -1.5667 N.ar      1 ACP        -0.8008
     29 C2         -3.5442    0.2679   -1.1609 C.ar      1 ACP         0.6565
     30 N3         -2.5561    0.1361   -0.2491 N.ar      1 ACP        -0.7061
     31 C4         -2.5568   -1.1019    0.2674 C.ar      1 ACP         0.5715
     32 HOG3       -4.7871    5.0703    7.3109 H         1 ACP         0.4226
     33 HOB2        1.2581    6.4764    3.6702 H         1 ACP         0.4482
     34 H3B1       -2.1850    6.5983    5.0689 H         1 ACP         0.1012
     35 H3B2       -1.3838    5.7435    6.3841 H         1 ACP         0.1012
     36 H5'1       -1.7769    2.7851    2.1387 H         1 ACP         0.0481
     37 H5'2       -1.1653    2.0543    0.6320 H         1 ACP         0.0481
     38 H4'         0.0403    1.7078    3.4343 H         1 ACP         0.0904
     39 H3'         1.5906    1.4859    1.1353 H         1 ACP         0.0809
     40 HO3'        2.1521    0.9800    3.3017 H         1 ACP         0.4528
     41 H2'        -0.0017    0.0018    0.0005 H         1 ACP         0.0594
     42 HO2'        1.7495   -1.7243    1.4324 H         1 ACP         0.4344
     43 H1'        -0.1998   -1.6319    2.6178 H         1 ACP         0.1127
     44 H8         -1.5778   -3.5473    2.1399 H         1 ACP         0.1050
     45 HN61       -5.2294   -3.7965   -0.9914 H         1 ACP         0.4211
     46 HN62       -5.9774   -2.6837   -2.1055 H         1 ACP         0.4211
     47 H2         -3.6201    1.2414   -1.6336 H         1 ACP         0.0375
@<TRIPOS>BOND
     1    1    2 2
     2    1    3 1
     3    1    4 1
     4    1    8 1
     5    4   32 1
     6    5    6 2
     7    5    7 1
     8    5    8 1
     9    5   12 1
    10    7   33 1
    11    8   34 1
    12    8   35 1
    13    9   10 2
    14    9   11 1
    15    9   12 1
    16    9   13 1
    17   13   14 1
    18   14   15 1
    19   14   36 1
    20   14   37 1
    21   15   16 1
    22   15   17 1
    23   15   38 1
    24   16   21 1
    25   17   18 1
    26   17   19 1
    27   17   39 1
    28   18   40 1
    29   19   20 1
    30   19   21 1
    31   19   41 1
    32   20   42 1
    33   21   22 1
    34   21   43 1
    35   22   23 ar
    36   22   31 ar
    37   23   24 ar
    38   23   44 1
    39   24   25 ar
    40   25   26 ar
    41   25   31 ar
    42   26   27 1
    43   26   28 ar
    44   27   45 1
    45   27   46 1
    46   28   29 ar
    47   29   30 ar
    48   29   47 1
    49   30   31 ar
@<TRIPOS>SUBSTRUCTURE
     1 ACP         1 GROUP 0 A     ****
@<TRIPOS>MOLECULE
[[[5-(6-aminopurin-9-yl)-3,4-dihydroxy-tetrahydrofuran-2-yl]methoxy-oxido-phosphoryl]oxy-hydroxy-phosphoryl]methyl-hydroxy-phosphinate
   47    49     1     0     0
SMALL
USER_CHARGES

@<TRIPOS>ATOM
      1 PG          5.9435   -0.1266   -3.6344 P.3       1 ACP         1.3516
      2 O1G         4.7639    0.2074   -2.7511 O.co2     1 ACP        -0.8379
      3 O2G         6.9941   -1.1348   -3.2300 O.co2     1 ACP        -0.8379
      4 O3G         5.4140   -0.4702   -5.1383 O.3       1 ACP        -0.7980
      5 PB          7.5238    2.5317   -2.7456 P.3       1 ACP         1.7688
      6 O1B         8.1863    3.7722   -3.2656 O.2       1 ACP        -0.9167
      7 O2B         8.4918    1.5453   -1.9079 O.3       1 ACP        -0.8201
      8 C3B         6.8138    1.4602   -4.0135 C.3       1 ACP        -0.6097
      9 PA          6.1595    3.5245   -0.3149 P.3       1 ACP         1.5979
     10 O1A         6.3881    5.0035   -0.5385 O.co2     1 ACP        -0.8617
     11 O2A         6.9730    2.7625    0.7085 O.co2     1 ACP        -0.8617
     12 O3A         6.2706    2.7650   -1.7552 O.3       1 ACP        -0.8283
     13 O5'         4.5669    3.2940   -0.0211 O.3       1 ACP        -0.5783
     14 C5'         4.0922    1.9801    0.2227 C.3       1 ACP         0.1980
     15 C4'         2.5944    2.0310    0.4653 C.3       1 ACP         0.0815
     16 O4'         1.9327    2.5740   -0.6889 O.3       1 ACP        -0.4127
     17 C3'         1.9685    0.6634    0.6767 C.3       1 ACP         0.0890
     18 O3'         2.1425    0.1975    1.9977 O.3       1 ACP        -0.6221
     19 C2'         0.5176    0.9128    0.3099 C.3       1 ACP         0.1067
     20 O2'        -0.2103    1.4454    1.4152 O.3       1 ACP        -0.6053
     21 C1'         0.6219    1.9765   -0.7844 C.3       1 ACP         0.4223
     22 N9          0.4237    1.4496   -2.1357 N.pl3     1 ACP        -0.6834
     23 C8          1.1856    0.4888   -2.7458 C.ar      1 ACP         0.5614
     24 N7          0.7615    0.2176   -3.9625 N.2       1 ACP        -0.5751
     25 C5         -0.3220    1.0389   -4.1486 C.ar      1 ACP        -0.2117
     26 C6         -1.1900    1.2182   -5.2210 C.ar      1 ACP         0.7177
     27 N6         -1.0341    0.4739   -6.4028 N.pl3     1 ACP        -0.9401
     28 N1         -2.1929    2.1227   -5.1127 N.ar      1 ACP        -0.8008
     29 C2         -2.2930    2.8097   -3.9492 C.ar      1 ACP         0.6565
     30 N3         -1.5176    2.7252   -2.8462 N.ar      1 ACP        -0.7061
     31 C4         -0.5489    1.8142   -3.0226 C.ar      1 ACP         0.5715
     32 HOG3        4.7922   -1.2198   -5.2554 H         1 ACP         0.4226
     33 HOB2        8.9263    1.8830   -1.0960 H         1 ACP         0.4482
     34 H3B1        7.6137    1.2055   -4.7179 H         1 ACP         0.1012
     35 H3B2        6.0811    2.0597   -4.5641 H         1 ACP         0.1012
     36 H5'1        4.3180    1.3550   -0.6470 H         1 ACP         0.0481
     37 H5'2        4.6085    1.5739    1.0983 H         1 ACP         0.0481
     38 H4'         2.3751    2.7029    1.3156 H         1 ACP         0.0904
     39 H3'         2.4336   -0.1217   -0.0015 H         1 ACP         0.0809
     40 HO3'        1.7160   -0.6716    2.0397 H         1 ACP         0.4528
     41 H2'         0.0316    0.0155   -0.0339 H         1 ACP         0.0594
     42 HO2'       -0.1608    0.7921    2.1351 H         1 ACP         0.4344
     43 H1'        -0.1474    2.7798   -0.6651 H         1 ACP         0.1127
     44 H8          2.0314    0.0256   -2.2564 H         1 ACP         0.1050
     45 HN61       -0.2609   -0.1582   -6.4888 H         1 ACP         0.4211
     46 HN62       -1.6409    0.6517   -7.1807 H         1 ACP         0.4211
     47 H2         -3.1067    3.5253   -3.8975 H         1 ACP         0.0375
@<TRIPOS>BOND
     1    1    2 2
     2    1    3 1
     3    1    4 1
     4    1    8 1
     5    4   32 1
     6    5    6 2
     7    5    7 1
     8    5    8 1
     9    5   12 1
    10    7   33 1
    11    8   34 1
    12    8   35 1
    13    9   10 2
    14    9   11 1
    15    9   12 1
    16    9   13 1
    17   13   14 1
    18   14   15 1
    19   14   36 1
    20   14   37 1
    21   15   16 1
    22   15   17 1
    23   15   38 1
    24   16   21 1
    25   17   18 1
    26   17   19 1
    27   17   39 1
    28   18   40 1
    29   19   20 1
    30   19   21 1
    31   19   41 1
    32   20   42 1
    33   21   22 1
    34   21   43 1
    35   22   23 ar
    36   22   31 ar
    37   23   24 ar
    38   23   44 1
    39   24   25 ar
    40   25   26 ar
    41   25   31 ar
    42   26   27 1
    43   26   28 ar
    44   27   45 1
    45   27   46 1
    46   28   29 ar
    47   29   30 ar
    48   29   47 1
    49   30   31 ar
@<TRIPOS>SUBSTRUCTURE
     1 ACP         1 GROUP 0 A     ****
@<TRIPOS>MOLECULE
[[[5-(6-aminopurin-9-yl)-3,4-dihydroxy-tetrahydrofuran-2-yl]methoxy-oxido-phosphoryl]oxy-hydroxy-phosphoryl]methyl-hydroxy-phosphinate
   47    49     1     0     0
SMALL
USER_CHARGES

@<TRIPOS>ATOM
      1 PG          7.6118    1.6748   -5.1025 P.3       1 ACP         1.3516
      2 O1G         7.5354    0.8238   -6.3488 O.co2     1 ACP        -0.8379
      3 O2G         8.2795    1.1920   -3.8357 O.co2     1 ACP        -0.8379
      4 O3G         8.1876    3.1510   -5.4891 O.3       1 ACP        -0.7980
      5 PB          5.4741    3.1966   -3.2401 P.3       1 ACP         1.7688
      6 O1B         4.0121    3.4797   -3.0649 O.2       1 ACP        -0.9167
      7 O2B         6.4009    4.5063   -3.4332 O.3       1 ACP        -0.8201
      8 C3B         5.8839    2.1677   -4.6660 C.3       1 ACP        -0.6097
      9 PA          5.8980    0.9306   -1.3851 P.3       1 ACP         1.5979
     10 O1A         6.7587    0.7749   -0.1503 O.co2     1 ACP        -0.8617
     11 O2A         5.9322   -0.1059   -2.4870 O.co2     1 ACP        -0.8617
     12 O3A         6.1874    2.4018   -2.0295 O.3       1 ACP        -0.8283
     13 O5'         4.3515    1.1573   -0.9028 O.3       1 ACP        -0.5783
     14 C5'         4.0922    1.9801    0.2227 C.3       1 ACP         0.1980
     15 C4'         2.5944    2.0310    0.4653 C.3       1 ACP         0.0815
     16 O4'         1.9327    2.5740   -0.6889 O.3       1 ACP        -0.4127
     17 C3'         1.9685    0.6634    0.6767 C.3       1 ACP         0.0890
     18 O3'         2.1425    0.1975    1.9977 O.3       1 ACP        -0.6221
     19 C2'         0.5176    0.9128    0.3099 C.3       1 ACP         0.1067
     20 O2'        -0.2103    1.4454    1.4152 O.3       1 ACP        -0.6053
     21 C1'         0.6219    1.9765   -0.7844 C.3       1 ACP         0.4223
     22 N9          0.4237    1.4496   -2.1357 N.pl3     1 ACP        -0.6834
     23 C8          1.4026    0.9717   -2.9660 C.ar      1 ACP         0.5614
     24 N7          0.9183    0.5619   -4.1197 N.2       1 ACP        -0.5751
     25 C5         -0.4330    0.7845   -4.0331 C.ar      1 ACP        -0.2117
     26 C6         -1.4794    0.5615   -4.9225 C.ar      1 ACP         0.7177
     27 N6         -1.2378    0.0044   -6.1899 N.pl3     1 ACP        -0.9401
     28 N1         -2.7406    0.8885   -4.5512 N.ar      1 ACP        -0.8008
     29 C2         -2.9113    1.4216   -3.3172 C.ar      1 ACP         0.6565
     30 N3         -1.9824    1.6843   -2.3721 N.ar      1 ACP        -0.7061
     31 C4         -0.7613    1.3370   -2.8054 C.ar      1 ACP         0.5715
     32 HOG3        9.0798    3.2144   -5.8917 H         1 ACP         0.4226
     33 HOB2        6.4223    5.1821   -2.7226 H         1 ACP         0.4482
     34 H3B1        5.4752    2.6579   -5.5568 H         1 ACP         0.1012
     35 H3B2        5.3431    1.2231   -4.5437 H         1 ACP         0.1012
     36 H5'1        4.6070    1.5616    1.0933 H         1 ACP         0.0481
     37 H5'2        4.4825    2.9835    0.0252 H         1 ACP         0.0481
     38 H4'         2.3751    2.7029    1.3156 H         1 ACP         0.0904
     39 H3'         2.4336   -0.1217   -0.0015 H         1 ACP         0.0809
     40 HO3'        3.0987    0.1465    2.1461 H         1 ACP         0.4528
     41 H2'         0.0316    0.0155   -0.0339 H         1 ACP         0.0594
     42 HO2'       -1.1270    1.5823    1.1180 H         1 ACP         0.4344
     43 H1'        -0.1474    2.7798   -0.6651 H         1 ACP         0.1127
     44 H8          2.4442    0.9470   -2.6763 H         1 ACP         0.1050
     45 HN61       -0.2955   -0.1901   -6.4713 H         1 ACP         0.4211
     46 HN62       -1.9987   -0.1045   -6.8334 H         1 ACP         0.4211
     47 H2         -3.9335    1.6716   -3.0534 H         1 ACP         0.0375
@<TRIPOS>BOND
     1    1    2 2
     2    1    3 1
     3    1    4 1
     4    1    8 1
     5    4   32 1
     6    5    6 2
     7    5    7 1
     8    5    8 1
     9    5   12 1
    10    7   33 1
    11    8   34 1
    12    8   35 1
    13    9   10 2
    14    9   11 1
    15    9   12 1
    16    9   13 1
    17   13   14 1
    18   14   15 1
    19   14   36 1
    20   14   37 1
    21   15   16 1
    22   15   17 1
    23   15   38 1
    24   16   21 1
    25   17   18 1
    26   17   19 1
    27   17   39 1
    28   18   40 1
    29   19   20 1
    30   19   21 1
    31   19   41 1
    32   20   42 1
    33   21   22 1
    34   21   43 1
    35   22   23 ar
    36   22   31 ar
    37   23   24 ar
    38   23   44 1
    39   24   25 ar
    40   25   26 ar
    41   25   31 ar
    42   26   27 1
    43   26   28 ar
    44   27   45 1
    45   27   46 1
    46   28   29 ar
    47   29   30 ar
    48   29   47 1
    49   30   31 ar
@<TRIPOS>SUBSTRUCTURE
     1 ACP         1 GROUP 0 A     ****
@<TRIPOS>MOLECULE
[[[5-(6-aminopurin-9-yl)-3,4-dihydroxy-tetrahydrofuran-2-yl]methoxy-oxido-phosphoryl]oxy-hydroxy-phosphoryl]methyl-hydroxy-phosphinate
   47    49     1     0     0
SMALL
USER_CHARGES

@<TRIPOS>ATOM
      1 PG          3.1928    4.5505    0.3386 P.3       1 ACP         1.3516
      2 O1G         4.6851    4.3851    0.5091 O.co2     1 ACP        -0.8379
      3 O2G         2.1959    3.8286    1.2153 O.co2     1 ACP        -0.8379
      4 O3G         2.8252    6.1389    0.2953 O.3       1 ACP        -0.7980
      5 PB          1.1170    4.1900   -2.0936 P.3       1 ACP         1.7688
      6 O1B         1.0081    3.8159   -3.5414 O.2       1 ACP        -0.9167
      7 O2B         0.6086    5.6822   -1.7378 O.3       1 ACP        -0.8201
      8 C3B         2.7903    4.1350   -1.4177 C.3       1 ACP        -0.6097
      9 PA         -1.2907    2.9171   -0.9369 P.3       1 ACP         1.5979
     10 O1A        -1.7019    2.1112   -2.1499 O.co2     1 ACP        -0.8617
     11 O2A        -2.0345    4.1794   -0.5589 O.co2     1 ACP        -0.8617
     12 O3A         0.3012    3.2547   -1.0613 O.3       1 ACP        -0.8283
     13 O5'        -1.2434    1.9102    0.3513 O.3       1 ACP        -0.5783
     14 C5'        -0.8811    2.4285    1.6206 C.3       1 ACP         0.1980
     15 C4'        -0.1994    1.3333    2.4288 C.3       1 ACP         0.0815
     16 O4'        -1.1285    0.2356    2.5840 O.3       1 ACP        -0.4127
     17 C3'         1.0324    0.7610    1.7344 C.3       1 ACP         0.0890
     18 O3'         1.9175    0.2377    2.7247 O.3       1 ACP        -0.6221
     19 C2'         0.4468   -0.3802    0.9263 C.3       1 ACP         0.1067
     20 O2'         1.3993   -1.3703    0.5961 O.3       1 ACP        -0.6053
     21 C1'        -0.6159   -0.9100    1.8769 C.3       1 ACP         0.4223
     22 N9         -1.7127   -1.6108    1.2130 N.pl3     1 ACP        -0.6834
     23 C8         -2.8641   -1.0399    0.7392 C.ar      1 ACP         0.5614
     24 N7         -3.6659   -1.9257    0.1858 N.2       1 ACP        -0.5751
     25 C5         -3.0053   -3.1223    0.3069 C.ar      1 ACP        -0.2117
     26 C6         -3.3321   -4.4178   -0.0813 C.ar      1 ACP         0.7177
     27 N6         -4.5476   -4.6866   -0.7335 N.pl3     1 ACP        -0.9401
     28 N1         -2.4608   -5.4225    0.1773 N.ar      1 ACP        -0.8008
     29 C2         -1.3053   -5.1020    0.8081 C.ar      1 ACP         0.6565
     30 N3         -0.8788   -3.8921    1.2315 N.ar      1 ACP        -0.7061
     31 C4         -1.7870   -2.9477    0.9438 C.ar      1 ACP         0.5715
     32 HOG3        3.0522    6.6929    1.0723 H         1 ACP         0.4226
     33 HOB2       -0.3229    5.9243   -1.9268 H         1 ACP         0.4482
     34 H3B1        3.4184    4.7878   -2.0344 H         1 ACP         0.1012
     35 H3B2        3.1573    3.1125   -1.5572 H         1 ACP         0.1012
     36 H5'1       -0.2034    3.2760    1.4766 H         1 ACP         0.0481
     37 H5'2       -1.7842    2.7761    2.1321 H         1 ACP         0.0481
     38 H4'         0.0403    1.7078    3.4343 H         1 ACP         0.0904
     39 H3'         1.5906    1.4859    1.1353 H         1 ACP         0.0809
     40 HO3'        2.6839   -0.1150    2.2479 H         1 ACP         0.4528
     41 H2'        -0.0017    0.0018    0.0005 H         1 ACP         0.0594
     42 HO2'        2.0953   -0.9375    0.0709 H         1 ACP         0.4344
     43 H1'        -0.1998   -1.6319    2.6178 H         1 ACP         0.1127
     44 H8         -3.0609    0.0200    0.8250 H         1 ACP         0.1050
     45 HN61       -5.2046   -3.9433   -0.8775 H         1 ACP         0.4211
     46 HN62       -4.7849   -5.6332   -0.9625 H         1 ACP         0.4211
     47 H2         -0.6318   -5.9307    0.9993 H         1 ACP         0.0375
@<TRIPOS>BOND
     1    1    2 2
     2    1    3 1
     3    1    4 1
     4    1    8 1
     5    4   32 1
     6    5    6 2
     7    5    7 1
     8    5    8 1
     9    5   12 1
    10    7   33 1
    11    8   34 1
    12    8   35 1
    13    9   10 2
    14    9   11 1
    15    9   12 1
    16    9   13 1
    17   13   14 1
    18   14   15 1
    19   14   36 1
    20   14   37 1
    21   15   16 1
    22   15   17 1
    23   15   38 1
    24   16   21 1
    25   17   18 1
    26   17   19 1
    27   17   39 1
    28   18   40 1
    29   19   20 1
    30   19   21 1
    31   19   41 1
    32   20   42 1
    33   21   22 1
    34   21   43 1
    35   22   23 ar
    36   22   31 ar
    37   23   24 ar
    38   23   44 1
    39   24   25 ar
    40   25   26 ar
    41   25   31 ar
    42   26   27 1
    43   26   28 ar
    44   27   45 1
    45   27   46 1
    46   28   29 ar
    47   29   30 ar
    48   29   47 1
    49   30   31 ar
@<TRIPOS>SUBSTRUCTURE
     1 ACP         1 GROUP 0 A     ****
@<TRIPOS>MOLECULE
[[[5-(6-aminopurin-9-yl)-3,4-dihydroxy-tetrahydrofuran-2-yl]methoxy-oxido-phosphoryl]oxy-hydroxy-phosphoryl]methyl-hydroxy-phosphinate
   47    49     1     0     0
SMALL
USER_CHARGES

@<TRIPOS>ATOM
      1 PG         -1.4202    5.1677   -2.0366 P.3       1 ACP         1.3516
      2 O1G        -1.4541    3.8024   -1.3900 O.co2     1 ACP        -0.8379
      3 O2G        -0.1254    5.8484   -2.4161 O.co2     1 ACP        -0.8379
      4 O3G        -2.4368    5.1887   -3.3117 O.3       1 ACP        -0.7980
      5 PB         -1.8855    6.6530    0.7797 P.3       1 ACP         1.7688
      6 O1B        -2.7744    7.6217    1.5005 O.2       1 ACP        -0.9167
      7 O2B        -0.3362    7.1009    0.6759 O.3       1 ACP        -0.8201
      8 C3B        -2.3516    6.3225   -0.9330 C.3       1 ACP        -0.6097
      9 PA         -2.9650    4.0420    1.6588 P.3       1 ACP         1.5979
     10 O1A        -3.4619    3.5597    0.3133 O.co2     1 ACP        -0.8617
     11 O2A        -3.9334    4.5556    2.7019 O.co2     1 ACP        -0.8617
     12 O3A        -1.8099    5.1668    1.4056 O.3       1 ACP        -0.8283
     13 O5'        -2.0402    2.8619    2.3131 O.3       1 ACP        -0.5783
     14 C5'        -0.8811    2.4285    1.6206 C.3       1 ACP         0.1980
     15 C4'        -0.1994    1.3333    2.4288 C.3       1 ACP         0.0815
     16 O4'        -1.1285    0.2356    2.5840 O.3       1 ACP        -0.4127
     17 C3'         1.0324    0.7610    1.7344 C.3       1 ACP         0.0890
     18 O3'         1.9175    0.2377    2.7247 O.3       1 ACP        -0.6221
     19 C2'         0.4468   -0.3802    0.9263 C.3       1 ACP         0.1067
     20 O2'         1.3993   -1.3703    0.5961 O.3       1 ACP        -0.6053
     21 C1'        -0.6159   -0.9100    1.8769 C.3       1 ACP         0.4223
     22 N9         -1.7127   -1.6108    1.2130 N.pl3     1 ACP        -0.6834
     23 C8         -2.0877   -2.9101    1.4304 C.ar      1 ACP         0.5614
     24 N7         -3.1152   -3.2613    0.6857 N.2       1 ACP        -0.5751
     25 C5         -3.4186   -2.1409   -0.0462 C.ar      1 ACP        -0.2117
     26 C6         -4.3953   -1.8809   -1.0023 C.ar      1 ACP         0.7177
     27 N6         -5.3118   -2.8767   -1.3812 N.pl3     1 ACP        -0.9401
     28 N1         -4.4538   -0.6507   -1.5667 N.ar      1 ACP        -0.8008
     29 C2         -3.5442    0.2679   -1.1609 C.ar      1 ACP         0.6565
     30 N3         -2.5561    0.1361   -0.2491 N.ar      1 ACP        -0.7061
     31 C4         -2.5568   -1.1019    0.2674 C.ar      1 ACP         0.5715
     32 HOG3       -2.2785    4.5586   -4.0467 H         1 ACP         0.4226
     33 HOB2        0.1724    7.2469    1.5018 H         1 ACP         0.4482
     34 H3B1       -2.3836    7.2834   -1.4589 H         1 ACP         0.1012
     35 H3B2       -3.3750    5.9327   -0.9155 H         1 ACP         0.1012
     36 H5'1       -1.1770    2.0503    0.6369 H         1 ACP         0.0481
     37 H5'2       -0.2082    3.2815    1.4877 H         1 ACP         0.0481
     38 H4'         0.0403    1.7078    3.4343 H         1 ACP         0.0904
     39 H3'         1.5906    1.4859    1.1353 H         1 ACP         0.0809
     40 HO3'        2.6839   -0.1150    2.2479 H         1 ACP         0.4528
     41 H2'        -0.0017    0.0018    0.0005 H         1 ACP         0.0594
     42 HO2'        2.0953   -0.9375    0.0709 H         1 ACP         0.4344
     43 H1'        -0.1998   -1.6319    2.6178 H         1 ACP         0.1127
     44 H8         -1.5778   -3.5473    2.1399 H         1 ACP         0.1050
     45 HN61       -5.2294   -3.7965   -0.9914 H         1 ACP         0.4211
     46 HN62       -5.9774   -2.6837   -2.1055 H         1 ACP         0.4211
     47 H2         -3.6201    1.2414   -1.6336 H         1 ACP         0.0375
@<TRIPOS>BOND
     1    1    2 2
     2    1    3 1
     3    1    4 1
     4    1    8 1
     5    4   32 1
     6    5    6 2
     7    5    7 1
     8    5    8 1
     9    5   12 1
    10    7   33 1
    11    8   34 1
    12    8   35 1
    13    9   10 2
    14    9   11 1
    15    9   12 1
    16    9   13 1
    17   13   14 1
    18   14   15 1
    19   14   36 1
    20   14   37 1
    21   15   16 1
    22   15   17 1
    23   15   38 1
    24   16   21 1
    25   17   18 1
    26   17   19 1
    27   17   39 1
    28   18   40 1
    29   19   20 1
    30   19   21 1
    31   19   41 1
    32   20   42 1
    33   21   22 1
    34   21   43 1
    35   22   23 ar
    36   22   31 ar
    37   23   24 ar
    38   23   44 1
    39   24   25 ar
    40   25   26 ar
    41   25   31 ar
    42   26   27 1
    43   26   28 ar
    44   27   45 1
    45   27   46 1
    46   28   29 ar
    47   29   30 ar
    48   29   47 1
    49   30   31 ar
@<TRIPOS>SUBSTRUCTURE
     1 ACP         1 GROUP 0 A     ****
@<TRIPOS>MOLECULE
[[[5-(6-aminopurin-9-yl)-3,4-dihydroxy-tetrahydrofuran-2-yl]methoxy-oxido-phosphoryl]oxy-hydroxy-phosphoryl]methyl-hydroxy-phosphinate
   47    49     1     0     0
SMALL
USER_CHARGES

@<TRIPOS>ATOM
      1 PG          2.9456    5.3484    0.8898 P.3       1 ACP         1.3516
      2 O1G         2.8633    5.9178   -0.5074 O.co2     1 ACP        -0.8379
      3 O2G         2.5715    3.9176    1.2010 O.co2     1 ACP        -0.8379
      4 O3G         4.4134    5.6740    1.5219 O.3       1 ACP        -0.7980
      5 PB          0.1667    6.7235    1.7506 P.3       1 ACP         1.7688
      6 O1B        -0.2022    7.3363    0.4329 O.2       1 ACP        -0.9167
      7 O2B        -0.2595    7.5910    3.0459 O.3       1 ACP        -0.8201
      8 C3B         1.9335    6.4381    1.9886 C.3       1 ACP        -0.6097
      9 PA         -2.0038    4.7531    2.1525 P.3       1 ACP         1.5979
     10 O1A        -2.6311    4.8530    0.7790 O.co2     1 ACP        -0.8617
     11 O2A        -2.6593    5.4042    3.3509 O.co2     1 ACP        -0.8617
     12 O3A        -0.4577    5.2649    2.0483 O.3       1 ACP        -0.8283
     13 O5'        -1.7337    3.1724    2.4753 O.3       1 ACP        -0.5783
     14 C5'        -0.8811    2.4285    1.6206 C.3       1 ACP         0.1980
     15 C4'        -0.1994    1.3333    2.4288 C.3       1 ACP         0.0815
     16 O4'        -1.1285    0.2356    2.5840 O.3       1 ACP        -0.4127
     17 C3'         1.0324    0.7610    1.7344 C.3       1 ACP         0.0890
     18 O3'         1.9175    0.2377    2.7247 O.3       1 ACP        -0.6221
     19 C2'         0.4468   -0.3802    0.9263 C.3       1 ACP         0.1067
     20 O2'         1.3993   -1.3703    0.5961 O.3       1 ACP        -0.6053
     21 C1'        -0.6159   -0.9100    1.8769 C.3       1 ACP         0.4223
     22 N9         -1.7127   -1.6108    1.2130 N.pl3     1 ACP        -0.6834
     23 C8         -1.7712   -2.9546    0.9544 C.ar      1 ACP         0.5614
     24 N7         -2.8883   -3.2948    0.3462 N.2       1 ACP        -0.5751
     25 C5         -3.5834   -2.1202    0.2043 C.ar      1 ACP        -0.2117
     26 C6         -4.8225   -1.8251   -0.3554 C.ar      1 ACP         0.7177
     27 N6         -5.6154   -2.8395   -0.9189 N.pl3     1 ACP        -0.9401
     28 N1         -5.2589   -0.5425   -0.3507 N.ar      1 ACP        -0.8008
     29 C2         -4.4510    0.3913    0.2069 C.ar      1 ACP         0.6565
     30 N3         -3.2368    0.2296    0.7767 N.ar      1 ACP        -0.7061
     31 C4         -2.8684   -1.0596    0.7376 C.ar      1 ACP         0.5715
     32 HOG3        5.2079    5.3278    1.0623 H         1 ACP         0.4226
     33 HOB2       -1.2081    7.7945    3.1901 H         1 ACP         0.4482
     34 H3B1        2.0732    6.0552    3.0058 H         1 ACP         0.1012
     35 H3B2        2.4235    7.4167    1.9447 H         1 ACP         0.1012
     36 H5'1       -1.4802    1.9928    0.8147 H         1 ACP         0.0481
     37 H5'2       -0.1369    3.1042    1.1873 H         1 ACP         0.0481
     38 H4'         0.0403    1.7078    3.4343 H         1 ACP         0.0904
     39 H3'         1.5906    1.4859    1.1353 H         1 ACP         0.0809
     40 HO3'        2.6839   -0.1150    2.2479 H         1 ACP         0.4528
     41 H2'        -0.0017    0.0018    0.0005 H         1 ACP         0.0594
     42 HO2'        2.0953   -0.9375    0.0709 H         1 ACP         0.4344
     43 H1'        -0.1998   -1.6319    2.6178 H         1 ACP         0.1127
     44 H8         -0.9745   -3.6312    1.2318 H         1 ACP         0.1050
     45 HN61       -5.2619   -3.7766   -0.9586 H         1 ACP         0.4211
     46 HN62       -6.4834   -2.5990   -1.3590 H         1 ACP         0.4211
     47 H2         -4.8317    1.4071    0.1930 H         1 ACP         0.0375
@<TRIPOS>BOND
     1    1    2 2
     2    1    3 1
     3    1    4 1
     4    1    8 1
     5    4   32 1
     6    5    6 2
     7    5    7 1
     8    5    8 1
     9    5   12 1
    10    7   33 1
    11    8   34 1
    12    8   35 1
    13    9   10 2
    14    9   11 1
    15    9   12 1
    16    9   13 1
    17   13   14 1
    18   14   15 1
    19   14   36 1
    20   14   37 1
    21   15   16 1
    22   15   17 1
    23   15   38 1
    24   16   21 1
    25   17   18 1
    26   17   19 1
    27   17   39 1
    28   18   40 1
    29   19   20 1
    30   19   21 1
    31   19   41 1
    32   20   42 1
    33   21   22 1
    34   21   43 1
    35   22   23 ar
    36   22   31 ar
    37   23   24 ar
    38   23   44 1
    39   24   25 ar
    40   25   26 ar
    41   25   31 ar
    42   26   27 1
    43   26   28 ar
    44   27   45 1
    45   27   46 1
    46   28   29 ar
    47   29   30 ar
    48   29   47 1
    49   30   31 ar
@<TRIPOS>SUBSTRUCTURE
     1 ACP         1 GROUP 0 A     ****
@<TRIPOS>MOLECULE
[[[5-(6-aminopurin-9-yl)-3,4-dihydroxy-tetrahydrofuran-2-yl]methoxy-oxido-phosphoryl]oxy-hydroxy-phosphoryl]methyl-hydroxy-phosphinate
   47    49     1     0     0
SMALL
USER_CHARGES

@<TRIPOS>ATOM
      1 PG          9.1665    1.3486    3.8924 P.3       1 ACP         1.3516
      2 O1G         9.4654    0.0734    4.6460 O.co2     1 ACP        -0.8379
      3 O2G         9.8047    2.6692    4.2567 O.co2     1 ACP        -0.8379
      4 O3G         9.3413    1.0860    2.2923 O.3       1 ACP        -0.7980
      5 PB          6.5019    2.9912    3.1470 P.3       1 ACP         1.7688
      6 O1B         6.9105    4.3368    3.6673 O.2       1 ACP        -0.9167
      7 O2B         4.9319    2.6466    3.3147 O.3       1 ACP        -0.8201
      8 C3B         7.3336    1.5903    3.9251 C.3       1 ACP        -0.6097
      9 PA          6.2488    3.4955    0.2423 P.3       1 ACP         1.5979
     10 O1A         6.6915    2.7044   -0.9692 O.co2     1 ACP        -0.8617
     11 O2A         6.5659    4.9703    0.3608 O.co2     1 ACP        -0.8617
     12 O3A         6.7832    2.7273    1.5794 O.3       1 ACP        -0.8283
     13 O5'         4.6405    3.2701    0.4379 O.3       1 ACP        -0.5783
     14 C5'         4.0922    1.9801    0.2227 C.3       1 ACP         0.1980
     15 C4'         2.5944    2.0310    0.4653 C.3       1 ACP         0.0815
     16 O4'         1.9327    2.5740   -0.6889 O.3       1 ACP        -0.4127
     17 C3'         1.9685    0.6634    0.6767 C.3       1 ACP         0.0890
     18 O3'         2.1425    0.1975    1.9977 O.3       1 ACP        -0.6221
     19 C2'         0.5176    0.9128    0.3099 C.3       1 ACP         0.1067
     20 O2'        -0.2103    1.4454    1.4152 O.3       1 ACP        -0.6053
     21 C1'         0.6219    1.9765   -0.7844 C.3       1 ACP         0.4223
     22 N9          0.4237    1.4496   -2.1357 N.pl3     1 ACP        -0.6834
     23 C8          1.4026    0.9717   -2.9660 C.ar      1 ACP         0.5614
     24 N7          0.9183    0.5619   -4.1197 N.2       1 ACP        -0.5751
     25 C5         -0.4330    0.7845   -4.0331 C.ar      1 ACP        -0.2117
     26 C6         -1.4794    0.5615   -4.9225 C.ar      1 ACP         0.7177
     27 N6         -1.2378    0.0044   -6.1899 N.pl3     1 ACP        -0.9401
     28 N1         -2.7406    0.8885   -4.5512 N.ar      1 ACP        -0.8008
     29 C2         -2.9113    1.4216   -3.3172 C.ar      1 ACP         0.6565
     30 N3         -1.9824    1.6843   -2.3721 N.ar      1 ACP        -0.7061
     31 C4         -0.7613    1.3370   -2.8054 C.ar      1 ACP         0.5715
     32 HOG3       10.2172    0.7964    1.9587 H         1 ACP         0.4226
     33 HOB2        4.2695    3.2265    2.8823 H         1 ACP         0.4482
     34 H3B1        6.9004    0.6743    3.5077 H         1 ACP         0.1012
     35 H3B2        7.0706    1.6134    4.9880 H         1 ACP         0.1012
     36 H5'1        4.3030    1.6731   -0.8066 H         1 ACP         0.0481
     37 H5'2        4.5679    1.2740    0.9106 H         1 ACP         0.0481
     38 H4'         2.3751    2.7029    1.3156 H         1 ACP         0.0904
     39 H3'         2.4336   -0.1217   -0.0015 H         1 ACP         0.0809
     40 HO3'        3.0987    0.1465    2.1461 H         1 ACP         0.4528
     41 H2'         0.0316    0.0155   -0.0339 H         1 ACP         0.0594
     42 HO2'       -1.1270    1.5823    1.1180 H         1 ACP         0.4344
     43 H1'        -0.1474    2.7798   -0.6651 H         1 ACP         0.1127
     44 H8          2.4442    0.9470   -2.6763 H         1 ACP         0.1050
     45 HN61       -0.2955   -0.1901   -6.4713 H         1 ACP         0.4211
     46 HN62       -1.9987   -0.1045   -6.8334 H         1 ACP         0.4211
     47 H2         -3.9335    1.6716   -3.0534 H         1 ACP         0.0375
@<TRIPOS>BOND
     1    1    2 2
     2    1    3 1
     3    1    4 1
     4    1    8 1
     5    4   32 1
     6    5    6 2
     7    5    7 1
     8    5    8 1
     9    5   12 1
    10    7   33 1
    11    8   34 1
    12    8   35 1
    13    9   10 2
    14    9   11 1
    15    9   12 1
    16    9   13 1
    17   13   14 1
    18   14   15 1
    19   14   36 1
    20   14   37 1
    21   15   16 1
    22   15   17 1
    23   15   38 1
    24   16   21 1
    25   17   18 1
    26   17   19 1
    27   17   39 1
    28   18   40 1
    29   19   20 1
    30   19   21 1
    31   19   41 1
    32   20   42 1
    33   21   22 1
    34   21   43 1
    35   22   23 ar
    36   22   31 ar
    37   23   24 ar
    38   23   44 1
    39   24   25 ar
    40   25   26 ar
    41   25   31 ar
    42   26   27 1
    43   26   28 ar
    44   27   45 1
    45   27   46 1
    46   28   29 ar
    47   29   30 ar
    48   29   47 1
    49   30   31 ar
@<TRIPOS>SUBSTRUCTURE
     1 ACP         1 GROUP 0 A     ****
@<TRIPOS>MOLECULE
[[[5-(6-aminopurin-9-yl)-3,4-dihydroxy-tetrahydrofuran-2-yl]methoxy-oxido-phosphoryl]oxy-hydroxy-phosphoryl]methyl-hydroxy-phosphinate
   47    49     1     0     0
SMALL
USER_CHARGES

@<TRIPOS>ATOM
      1 PG          7.6334   -0.4138   -1.8921 P.3       1 ACP         1.3516
      2 O1G         6.1633   -0.1075   -1.7240 O.co2     1 ACP        -0.8379
      3 O2G         8.4134   -1.2098   -0.8714 O.co2     1 ACP        -0.8379
      4 O3G         7.8904   -1.0380   -3.3768 O.3       1 ACP        -0.7980
      5 PB          8.4890    2.5254   -0.9005 P.3       1 ACP         1.7688
      6 O1B         9.2625    3.7509   -1.2853 O.2       1 ACP        -0.9167
      7 O2B         8.9911    1.8034    0.4553 O.3       1 ACP        -0.8201
      8 C3B         8.5082    1.1985   -2.1248 C.3       1 ACP        -0.6097
      9 PA          6.0981    3.6803    0.4053 P.3       1 ACP         1.5979
     10 O1A         6.3392    5.1278    0.0358 O.co2     1 ACP        -0.8617
     11 O2A         6.3667    3.1860    1.8100 O.co2     1 ACP        -0.8617
     12 O3A         6.9081    2.7391   -0.6538 O.3       1 ACP        -0.8283
     13 O5'         4.5669    3.2940   -0.0211 O.3       1 ACP        -0.5783
     14 C5'         4.0922    1.9801    0.2227 C.3       1 ACP         0.1980
     15 C4'         2.5944    2.0310    0.4653 C.3       1 ACP         0.0815
     16 O4'         1.9327    2.5740   -0.6889 O.3       1 ACP        -0.4127
     17 C3'         1.9685    0.6634    0.6767 C.3       1 ACP         0.0890
     18 O3'         2.1425    0.1975    1.9977 O.3       1 ACP        -0.6221
     19 C2'         0.5176    0.9128    0.3099 C.3       1 ACP         0.1067
     20 O2'        -0.2103    1.4454    1.4152 O.3       1 ACP        -0.6053
     21 C1'         0.6219    1.9765   -0.7844 C.3       1 ACP         0.4223
     22 N9          0.4237    1.4496   -2.1357 N.pl3     1 ACP        -0.6834
     23 C8          1.4026    0.9717   -2.9660 C.ar      1 ACP         0.5614
     24 N7          0.9183    0.5619   -4.1197 N.2       1 ACP        -0.5751
     25 C5         -0.4330    0.7845   -4.0331 C.ar      1 ACP        -0.2117
     26 C6         -1.4794    0.5615   -4.9225 C.ar      1 ACP         0.7177
     27 N6         -1.2378    0.0044   -6.1899 N.pl3     1 ACP        -0.9401
     28 N1         -2.7406    0.8885   -4.5512 N.ar      1 ACP        -0.8008
     29 C2         -2.9113    1.4216   -3.3172 C.ar      1 ACP         0.6565
     30 N3         -1.9824    1.6843   -2.3721 N.ar      1 ACP        -0.7061
     31 C4         -0.7613    1.3370   -2.8054 C.ar      1 ACP         0.5715
     32 HOG3        7.4310   -1.8698   -3.6205 H         1 ACP         0.4226
     33 HOB2        8.9766    2.3087    1.2959 H         1 ACP         0.4482
     34 H3B1        9.5560    0.9478   -2.3253 H         1 ACP         0.1012
     35 H3B2        8.0953    1.6128   -3.0508 H         1 ACP         0.1012
     36 H5'1        4.3180    1.3550   -0.6470 H         1 ACP         0.0481
     37 H5'2        4.6085    1.5739    1.0983 H         1 ACP         0.0481
     38 H4'         2.3751    2.7029    1.3156 H         1 ACP         0.0904
     39 H3'         2.4336   -0.1217   -0.0015 H         1 ACP         0.0809
     40 HO3'        1.7160   -0.6716    2.0397 H         1 ACP         0.4528
     41 H2'         0.0316    0.0155   -0.0339 H         1 ACP         0.0594
     42 HO2'       -0.1608    0.7921    2.1351 H         1 ACP         0.4344
     43 H1'        -0.1474    2.7798   -0.6651 H         1 ACP         0.1127
     44 H8          2.4442    0.9470   -2.6763 H         1 ACP         0.1050
     45 HN61       -0.2955   -0.1901   -6.4713 H         1 ACP         0.4211
     46 HN62       -1.9987   -0.1045   -6.8334 H         1 ACP         0.4211
     47 H2         -3.9335    1.6716   -3.0534 H         1 ACP         0.0375
@<TRIPOS>BOND
     1    1    2 2
     2    1    3 1
     3    1    4 1
     4    1    8 1
     5    4   32 1
     6    5    6 2
     7    5    7 1
     8    5    8 1
     9    5   12 1
    10    7   33 1
    11    8   34 1
    12    8   35 1
    13    9   10 2
    14    9   11 1
    15    9   12 1
    16    9   13 1
    17   13   14 1
    18   14   15 1
    19   14   36 1
    20   14   37 1
    21   15   16 1
    22   15   17 1
    23   15   38 1
    24   16   21 1
    25   17   18 1
    26   17   19 1
    27   17   39 1
    28   18   40 1
    29   19   20 1
    30   19   21 1
    31   19   41 1
    32   20   42 1
    33   21   22 1
    34   21   43 1
    35   22   23 ar
    36   22   31 ar
    37   23   24 ar
    38   23   44 1
    39   24   25 ar
    40   25   26 ar
    41   25   31 ar
    42   26   27 1
    43   26   28 ar
    44   27   45 1
    45   27   46 1
    46   28   29 ar
    47   29   30 ar
    48   29   47 1
    49   30   31 ar
@<TRIPOS>SUBSTRUCTURE
     1 ACP         1 GROUP 0 A     ****
@<TRIPOS>MOLECULE
[[[5-(6-aminopurin-9-yl)-3,4-dihydroxy-tetrahydrofuran-2-yl]methoxy-oxido-phosphoryl]oxy-hydroxy-phosphoryl]methyl-hydroxy-phosphinate
   47    49     1     0     0
SMALL
USER_CHARGES

@<TRIPOS>ATOM
      1 PG          1.2076    4.1285   -7.7051 P.3       1 ACP         1.3516
      2 O1G         1.0693    2.6266   -7.7969 O.co2     1 ACP        -0.8379
      3 O2G         2.4932    4.8429   -8.0525 O.co2     1 ACP        -0.8379
      4 O3G        -0.0342    4.8359   -8.4910 O.3       1 ACP        -0.7980
      5 PB         -0.8736    4.2977   -5.2568 P.3       1 ACP         1.7688
      6 O1B        -2.0255    4.9287   -5.9801 O.2       1 ACP        -0.9167
      7 O2B        -0.7032    4.7595   -3.7176 O.3       1 ACP        -0.8201
      8 C3B         0.7480    4.6191   -5.9826 C.3       1 ACP        -0.6097
      9 PA         -1.9759    1.6544   -4.5130 P.3       1 ACP         1.5979
     10 O1A        -1.3934    0.2587   -4.5652 O.co2     1 ACP        -0.8617
     11 O2A        -3.3453    1.9426   -5.0888 O.co2     1 ACP        -0.8617
     12 O3A        -0.8949    2.6859   -5.1695 O.3       1 ACP        -0.8283
     13 O5'        -1.9207    2.1716   -2.9622 O.3       1 ACP        -0.5783
     14 C5'        -0.7794    1.8744   -2.1748 C.3       1 ACP         0.1980
     15 C4'        -0.9699    2.4597   -0.7819 C.3       1 ACP         0.0815
     16 O4'        -2.1475    1.8640   -0.2014 O.3       1 ACP        -0.4127
     17 C3'         0.1697    2.1347    0.1695 C.3       1 ACP         0.0890
     18 O3'         0.1809    3.0982    1.2223 O.3       1 ACP        -0.6221
     19 C2'        -0.2543    0.7880    0.7187 C.3       1 ACP         0.1067
     20 O2'         0.3606    0.4944    1.9582 O.3       1 ACP        -0.6053
     21 C1'        -1.7682    0.9516    0.8548 C.3       1 ACP         0.4223
     22 N9         -2.5926   -0.2553    0.7436 N.pl3     1 ACP        -0.6834
     23 C8         -2.2879   -1.3752    0.0161 C.ar      1 ACP         0.5614
     24 N7         -3.2214   -2.2987    0.1123 N.2       1 ACP        -0.5751
     25 C5         -4.1722   -1.7531    0.9377 C.ar      1 ACP        -0.2117
     26 C6         -5.3870   -2.2342    1.4159 C.ar      1 ACP         0.7177
     27 N6         -5.8433   -3.5142    1.0574 N.pl3     1 ACP        -0.9401
     28 N1         -6.1289   -1.4512    2.2356 N.ar      1 ACP        -0.8008
     29 C2         -5.6370   -0.2275    2.5461 C.ar      1 ACP         0.6565
     30 N3         -4.4810    0.3469    2.1476 N.ar      1 ACP        -0.7061
     31 C4         -3.7996   -0.4810    1.3417 C.ar      1 ACP         0.5715
     32 HOG3       -0.1477    4.6520   -9.4479 H         1 ACP         0.4226
     33 HOB2       -1.4367    4.5934   -3.0878 H         1 ACP         0.4482
     34 H3B1        1.5001    4.1644   -5.3279 H         1 ACP         0.1012
     35 H3B2        0.9048    5.7025   -5.9461 H         1 ACP         0.1012
     36 H5'1       -0.6601    0.7877   -2.1202 H         1 ACP         0.0481
     37 H5'2        0.1042    2.3072   -2.6544 H         1 ACP         0.0481
     38 H4'        -1.1469    3.5409   -0.8522 H         1 ACP         0.0904
     39 H3'         1.1601    2.1310   -0.2934 H         1 ACP         0.0809
     40 HO3'        0.9173    2.8584    1.8048 H         1 ACP         0.4528
     41 H2'        -0.0024   -0.0091    0.0062 H         1 ACP         0.0594
     42 HO2'        0.0384   -0.3797    2.2403 H         1 ACP         0.4344
     43 H1'        -2.0584    1.4255    1.8301 H         1 ACP         0.1127
     44 H8         -1.3765   -1.4593   -0.5599 H         1 ACP         0.1050
     45 HN61       -5.3086   -4.0656    0.4134 H         1 ACP         0.4211
     46 HN62       -6.7426   -3.8233    1.3745 H         1 ACP         0.4211
     47 H2         -6.2570    0.3723    3.2040 H         1 ACP         0.0375
@<TRIPOS>BOND
     1    1    2 2
     2    1    3 1
     3    1    4 1
     4    1    8 1
     5    4   32 1
     6    5    6 2
     7    5    7 1
     8    5    8 1
     9    5   12 1
    10    7   33 1
    11    8   34 1
    12    8   35 1
    13    9   10 2
    14    9   11 1
    15    9   12 1
    16    9   13 1
    17   13   14 1
    18   14   15 1
    19   14   36 1
    20   14   37 1
    21   15   16 1
    22   15   17 1
    23   15   38 1
    24   16   21 1
    25   17   18 1
    26   17   19 1
    27   17   39 1
    28   18   40 1
    29   19   20 1
    30   19   21 1
    31   19   41 1
    32   20   42 1
    33   21   22 1
    34   21   43 1
    35   22   23 ar
    36   22   31 ar
    37   23   24 ar
    38   23   44 1
    39   24   25 ar
    40   25   26 ar
    41   25   31 ar
    42   26   27 1
    43   26   28 ar
    44   27   45 1
    45   27   46 1
    46   28   29 ar
    47   29   30 ar
    48   29   47 1
    49   30   31 ar
@<TRIPOS>SUBSTRUCTURE
     1 ACP         1 GROUP 0 A     ****
@<TRIPOS>MOLECULE
[[[5-(6-aminopurin-9-yl)-3,4-dihydroxy-tetrahydrofuran-2-yl]methoxy-oxido-phosphoryl]oxy-hydroxy-phosphoryl]methyl-hydroxy-phosphinate
   47    49     1     0     0
SMALL
USER_CHARGES

@<TRIPOS>ATOM
      1 PG         -4.5689    3.4035    5.1209 P.3       1 ACP         1.3516
      2 O1G        -3.9845    2.0922    5.5926 O.co2     1 ACP        -0.8379
      3 O2G        -5.1122    3.5879    3.7228 O.co2     1 ACP        -0.8379
      4 O3G        -5.6713    3.9259    6.2034 O.3       1 ACP        -0.7980
      5 PB         -1.6528    4.6711    4.6271 P.3       1 ACP         1.7688
      6 O1B        -0.8217    3.4705    4.9675 O.2       1 ACP        -0.9167
      7 O2B        -1.0008    6.0892    5.0461 O.3       1 ACP        -0.8201
      8 C3B        -3.2867    4.7074    5.3945 C.3       1 ACP        -0.6097
      9 PA         -1.0482    5.0555    1.7562 P.3       1 ACP         1.5979
     10 O1A        -0.0937    6.1972    2.0304 O.co2     1 ACP        -0.8617
     11 O2A        -1.9069    5.0480    0.5103 O.co2     1 ACP        -0.8617
     12 O3A        -2.0059    4.8628    3.0636 O.3       1 ACP        -0.8283
     13 O5'        -0.2060    3.6558    1.8418 O.3       1 ACP        -0.5783
     14 C5'        -0.8811    2.4285    1.6206 C.3       1 ACP         0.1980
     15 C4'        -0.1994    1.3333    2.4288 C.3       1 ACP         0.0815
     16 O4'        -1.1285    0.2356    2.5840 O.3       1 ACP        -0.4127
     17 C3'         1.0324    0.7610    1.7344 C.3       1 ACP         0.0890
     18 O3'         1.9175    0.2377    2.7247 O.3       1 ACP        -0.6221
     19 C2'         0.4468   -0.3802    0.9263 C.3       1 ACP         0.1067
     20 O2'         1.3993   -1.3703    0.5961 O.3       1 ACP        -0.6053
     21 C1'        -0.6159   -0.9100    1.8769 C.3       1 ACP         0.4223
     22 N9         -1.7127   -1.6108    1.2130 N.pl3     1 ACP        -0.6834
     23 C8         -2.5476   -1.0844    0.2632 C.ar      1 ACP         0.5614
     24 N7         -3.4391   -1.9591   -0.1536 N.2       1 ACP        -0.5751
     25 C5         -3.1701   -3.1016    0.5574 C.ar      1 ACP        -0.2117
     26 C6         -3.7593   -4.3620    0.5656 C.ar      1 ACP         0.7177
     27 N6         -4.8512   -4.6493   -0.2712 N.pl3     1 ACP        -0.9401
     28 N1         -3.2659   -5.3144    1.3932 N.ar      1 ACP        -0.8008
     29 C2         -2.2122   -4.9785    2.1759 C.ar      1 ACP         0.6565
     30 N3         -1.5595   -3.7985    2.2572 N.ar      1 ACP        -0.7061
     31 C4         -2.0986   -2.9054    1.4140 C.ar      1 ACP         0.5715
     32 HOG3       -6.4484    3.3575    6.3910 H         1 ACP         0.4226
     33 HOB2       -0.1337    6.3444    4.6652 H         1 ACP         0.4482
     34 H3B1       -3.7594    5.6580    5.1226 H         1 ACP         0.1012
     35 H3B2       -3.1298    4.7262    6.4783 H         1 ACP         0.1012
     36 H5'1       -1.9255    2.5382    1.9294 H         1 ACP         0.0481
     37 H5'2       -0.8473    2.1933    0.5521 H         1 ACP         0.0481
     38 H4'         0.0403    1.7078    3.4343 H         1 ACP         0.0904
     39 H3'         1.5906    1.4859    1.1353 H         1 ACP         0.0809
     40 HO3'        2.1521    0.9800    3.3017 H         1 ACP         0.4528
     41 H2'        -0.0017    0.0018    0.0005 H         1 ACP         0.0594
     42 HO2'        1.7495   -1.7243    1.4324 H         1 ACP         0.4344
     43 H1'        -0.1998   -1.6319    2.6178 H         1 ACP         0.1127
     44 H8         -2.4576   -0.0639   -0.0831 H         1 ACP         0.1050
     45 HN61       -5.2371   -3.9234   -0.8448 H         1 ACP         0.4211
     46 HN62       -5.2909   -5.5485   -0.2160 H         1 ACP         0.4211
     47 H2         -1.8433   -5.7650    2.8259 H         1 ACP         0.0375
@<TRIPOS>BOND
     1    1    2 2
     2    1    3 1
     3    1    4 1
     4    1    8 1
     5    4   32 1
     6    5    6 2
     7    5    7 1
     8    5    8 1
     9    5   12 1
    10    7   33 1
    11    8   34 1
    12    8   35 1
    13    9   10 2
    14    9   11 1
    15    9   12 1
    16    9   13 1
    17   13   14 1
    18   14   15 1
    19   14   36 1
    20   14   37 1
    21   15   16 1
    22   15   17 1
    23   15   38 1
    24   16   21 1
    25   17   18 1
    26   17   19 1
    27   17   39 1
    28   18   40 1
    29   19   20 1
    30   19   21 1
    31   19   41 1
    32   20   42 1
    33   21   22 1
    34   21   43 1
    35   22   23 ar
    36   22   31 ar
    37   23   24 ar
    38   23   44 1
    39   24   25 ar
    40   25   26 ar
    41   25   31 ar
    42   26   27 1
    43   26   28 ar
    44   27   45 1
    45   27   46 1
    46   28   29 ar
    47   29   30 ar
    48   29   47 1
    49   30   31 ar
@<TRIPOS>SUBSTRUCTURE
     1 ACP         1 GROUP 0 A     ****
@<TRIPOS>MOLECULE
[[[5-(6-aminopurin-9-yl)-3,4-dihydroxy-tetrahydrofuran-2-yl]methoxy-oxido-phosphoryl]oxy-hydroxy-phosphoryl]methyl-hydroxy-phosphinate
   47    49     1     0     0
SMALL
USER_CHARGES

@<TRIPOS>ATOM
      1 PG         -3.2564    3.1585   -2.2516 P.3       1 ACP         1.3516
      2 O1G        -3.1401    3.1893   -0.7453 O.co2     1 ACP        -0.8379
      3 O2G        -3.4780    1.8747   -3.0174 O.co2     1 ACP        -0.8379
      4 O3G        -4.3467    4.2715   -2.7337 O.3       1 ACP        -0.7980
      5 PB         -0.0663    3.3468   -2.6285 P.3       1 ACP         1.7688
      6 O1B         1.0271    4.1412   -3.2778 O.2       1 ACP        -0.9167
      7 O2B        -0.1367    1.7958   -3.0769 O.3       1 ACP        -0.8201
      8 C3B        -1.7368    3.9584   -2.9372 C.3       1 ACP        -0.6097
      9 PA         -0.0886    4.4447    0.1191 P.3       1 ACP         1.5979
     10 O1A        -1.4692    5.0632    0.0838 O.co2     1 ACP        -0.8617
     11 O2A         1.1488    5.3088    0.0100 O.co2     1 ACP        -0.8617
     12 O3A        -0.0220    3.2744   -1.0164 O.3       1 ACP        -0.8283
     13 O5'         0.0181    3.5132    1.4596 O.3       1 ACP        -0.5783
     14 C5'        -0.8811    2.4285    1.6206 C.3       1 ACP         0.1980
     15 C4'        -0.1994    1.3333    2.4288 C.3       1 ACP         0.0815
     16 O4'        -1.1285    0.2356    2.5840 O.3       1 ACP        -0.4127
     17 C3'         1.0324    0.7610    1.7344 C.3       1 ACP         0.0890
     18 O3'         1.9175    0.2377    2.7247 O.3       1 ACP        -0.6221
     19 C2'         0.4468   -0.3802    0.9263 C.3       1 ACP         0.1067
     20 O2'         1.3993   -1.3703    0.5961 O.3       1 ACP        -0.6053
     21 C1'        -0.6159   -0.9100    1.8769 C.3       1 ACP         0.4223
     22 N9         -1.7127   -1.6108    1.2130 N.pl3     1 ACP        -0.6834
     23 C8         -1.7712   -2.9546    0.9544 C.ar      1 ACP         0.5614
     24 N7         -2.8883   -3.2948    0.3462 N.2       1 ACP        -0.5751
     25 C5         -3.5834   -2.1202    0.2043 C.ar      1 ACP        -0.2117
     26 C6         -4.8225   -1.8251   -0.3554 C.ar      1 ACP         0.7177
     27 N6         -5.6154   -2.8395   -0.9189 N.pl3     1 ACP        -0.9401
     28 N1         -5.2589   -0.5425   -0.3507 N.ar      1 ACP        -0.8008
     29 C2         -4.4510    0.3913    0.2069 C.ar      1 ACP         0.6565
     30 N3         -3.2368    0.2296    0.7767 N.ar      1 ACP        -0.7061
     31 C4         -2.8684   -1.0596    0.7376 C.ar      1 ACP         0.5715
     32 HOG3       -5.2690    4.1941   -2.4088 H         1 ACP         0.4226
     33 HOB2        0.6395    1.2186   -2.9143 H         1 ACP         0.4482
     34 H3B1       -1.8797    3.9981   -4.0230 H         1 ACP         0.1012
     35 H3B2       -1.7713    4.9903   -2.5717 H         1 ACP         0.1012
     36 H5'1       -1.7769    2.7851    2.1387 H         1 ACP         0.0481
     37 H5'2       -1.1653    2.0543    0.6320 H         1 ACP         0.0481
     38 H4'         0.0403    1.7078    3.4343 H         1 ACP         0.0904
     39 H3'         1.5906    1.4859    1.1353 H         1 ACP         0.0809
     40 HO3'        2.6839   -0.1150    2.2479 H         1 ACP         0.4528
     41 H2'        -0.0017    0.0018    0.0005 H         1 ACP         0.0594
     42 HO2'        2.0953   -0.9375    0.0709 H         1 ACP         0.4344
     43 H1'        -0.1998   -1.6319    2.6178 H         1 ACP         0.1127
     44 H8         -0.9745   -3.6312    1.2318 H         1 ACP         0.1050
     45 HN61       -5.2619   -3.7766   -0.9586 H         1 ACP         0.4211
     46 HN62       -6.4834   -2.5990   -1.3590 H         1 ACP         0.4211
     47 H2         -4.8317    1.4071    0.1930 H         1 ACP         0.0375
@<TRIPOS>BOND
     1    1    2 2
     2    1    3 1
     3    1    4 1
     4    1    8 1
     5    4   32 1
     6    5    6 2
     7    5    7 1
     8    5    8 1
     9    5   12 1
    10    7   33 1
    11    8   34 1
    12    8   35 1
    13    9   10 2
    14    9   11 1
    15    9   12 1
    16    9   13 1
    17   13   14 1
    18   14   15 1
    19   14   36 1
    20   14   37 1
    21   15   16 1
    22   15   17 1
    23   15   38 1
    24   16   21 1
    25   17   18 1
    26   17   19 1
    27   17   39 1
    28   18   40 1
    29   19   20 1
    30   19   21 1
    31   19   41 1
    32   20   42 1
    33   21   22 1
    34   21   43 1
    35   22   23 ar
    36   22   31 ar
    37   23   24 ar
    38   23   44 1
    39   24   25 ar
    40   25   26 ar
    41   25   31 ar
    42   26   27 1
    43   26   28 ar
    44   27   45 1
    45   27   46 1
    46   28   29 ar
    47   29   30 ar
    48   29   47 1
    49   30   31 ar
@<TRIPOS>SUBSTRUCTURE
     1 ACP         1 GROUP 0 A     ****
@<TRIPOS>MOLECULE
[[[5-(6-aminopurin-9-yl)-3,4-dihydroxy-tetrahydrofuran-2-yl]methoxy-oxido-phosphoryl]oxy-hydroxy-phosphoryl]methyl-hydroxy-phosphinate
   47    49     1     0     0
SMALL
USER_CHARGES

@<TRIPOS>ATOM
      1 PG          9.2013    2.8934    3.7833 P.3       1 ACP         1.3516
      2 O1G         9.5734    1.9652    4.9161 O.co2     1 ACP        -0.8379
      3 O2G         9.7643    4.2910    3.6676 O.co2     1 ACP        -0.8379
      4 O3G         9.3875    2.1153    2.3620 O.3       1 ACP        -0.7980
      5 PB          6.4464    4.0449    2.5838 P.3       1 ACP         1.7688
      6 O1B         6.7792    5.5067    2.6113 O.2       1 ACP        -0.9167
      7 O2B         4.8988    3.6950    2.8908 O.3       1 ACP        -0.8201
      8 C3B         7.3577    3.0350    3.7709 C.3       1 ACP        -0.6097
      9 PA          6.1595    3.5245   -0.3149 P.3       1 ACP         1.5979
     10 O1A         6.6440    2.3951   -1.1979 O.co2     1 ACP        -0.8617
     11 O2A         6.3928    4.9672   -0.7072 O.co2     1 ACP        -0.8617
     12 O3A         6.7392    3.2823    1.1914 O.3       1 ACP        -0.8283
     13 O5'         4.5669    3.2940   -0.0211 O.3       1 ACP        -0.5783
     14 C5'         4.0922    1.9801    0.2227 C.3       1 ACP         0.1980
     15 C4'         2.5944    2.0310    0.4653 C.3       1 ACP         0.0815
     16 O4'         1.9327    2.5740   -0.6889 O.3       1 ACP        -0.4127
     17 C3'         1.9685    0.6634    0.6767 C.3       1 ACP         0.0890
     18 O3'         2.1425    0.1975    1.9977 O.3       1 ACP        -0.6221
     19 C2'         0.5176    0.9128    0.3099 C.3       1 ACP         0.1067
     20 O2'        -0.2103    1.4454    1.4152 O.3       1 ACP        -0.6053
     21 C1'         0.6219    1.9765   -0.7844 C.3       1 ACP         0.4223
     22 N9          0.4237    1.4496   -2.1357 N.pl3     1 ACP        -0.6834
     23 C8         -0.7736    1.3475   -2.7932 C.ar      1 ACP         0.5614
     24 N7         -0.6356    0.8373   -3.9991 N.2       1 ACP        -0.5751
     25 C5          0.7095    0.5981   -4.1281 C.ar      1 ACP        -0.2117
     26 C6          1.4733    0.0704   -5.1643 C.ar      1 ACP         0.7177
     27 N6          0.8693   -0.3355   -6.3666 N.pl3     1 ACP        -0.9401
     28 N1          2.8130   -0.0482   -5.0009 N.ar      1 ACP        -0.8008
     29 C2          3.3380    0.3602   -3.8204 C.ar      1 ACP         0.6565
     30 N3          2.7052    0.8841   -2.7480 N.ar      1 ACP        -0.7061
     31 C4          1.3867    0.9726   -2.9785 C.ar      1 ACP         0.5715
     32 HOG3       10.2778    1.7767    2.1273 H         1 ACP         0.4226
     33 HOB2        4.2037    4.0590    2.3022 H         1 ACP         0.4482
     34 H3B1        6.9762    2.0104    3.6960 H         1 ACP         0.1012
     35 H3B2        7.0959    3.4019    4.7692 H         1 ACP         0.1012
     36 H5'1        4.3180    1.3550   -0.6470 H         1 ACP         0.0481
     37 H5'2        4.6085    1.5739    1.0983 H         1 ACP         0.0481
     38 H4'         2.3751    2.7029    1.3156 H         1 ACP         0.0904
     39 H3'         2.4336   -0.1217   -0.0015 H         1 ACP         0.0809
     40 HO3'        3.0987    0.1465    2.1461 H         1 ACP         0.4528
     41 H2'         0.0316    0.0155   -0.0339 H         1 ACP         0.0594
     42 HO2'       -0.1608    0.7921    2.1351 H         1 ACP         0.4344
     43 H1'        -0.1474    2.7798   -0.6651 H         1 ACP         0.1127
     44 H8         -1.7070    1.6599   -2.3451 H         1 ACP         0.1050
     45 HN61       -0.1277   -0.2866   -6.4583 H         1 ACP         0.4211
     46 HN62        1.4308   -0.7566   -7.0823 H         1 ACP         0.4211
     47 H2          4.4130    0.2505   -3.7241 H         1 ACP         0.0375
@<TRIPOS>BOND
     1    1    2 2
     2    1    3 1
     3    1    4 1
     4    1    8 1
     5    4   32 1
     6    5    6 2
     7    5    7 1
     8    5    8 1
     9    5   12 1
    10    7   33 1
    11    8   34 1
    12    8   35 1
    13    9   10 2
    14    9   11 1
    15    9   12 1
    16    9   13 1
    17   13   14 1
    18   14   15 1
    19   14   36 1
    20   14   37 1
    21   15   16 1
    22   15   17 1
    23   15   38 1
    24   16   21 1
    25   17   18 1
    26   17   19 1
    27   17   39 1
    28   18   40 1
    29   19   20 1
    30   19   21 1
    31   19   41 1
    32   20   42 1
    33   21   22 1
    34   21   43 1
    35   22   23 ar
    36   22   31 ar
    37   23   24 ar
    38   23   44 1
    39   24   25 ar
    40   25   26 ar
    41   25   31 ar
    42   26   27 1
    43   26   28 ar
    44   27   45 1
    45   27   46 1
    46   28   29 ar
    47   29   30 ar
    48   29   47 1
    49   30   31 ar
@<TRIPOS>SUBSTRUCTURE
     1 ACP         1 GROUP 0 A     ****
@<TRIPOS>MOLECULE
[[[5-(6-aminopurin-9-yl)-3,4-dihydroxy-tetrahydrofuran-2-yl]methoxy-oxido-phosphoryl]oxy-hydroxy-phosphoryl]methyl-hydroxy-phosphinate
   47    49     1     0     0
SMALL
USER_CHARGES

@<TRIPOS>ATOM
      1 PG          6.6667    5.3626   -4.0127 P.3       1 ACP         1.3516
      2 O1G         7.3767    6.6616   -4.3157 O.co2     1 ACP        -0.8379
      3 O2G         5.4266    5.3031   -3.1511 O.co2     1 ACP        -0.8379
      4 O3G         6.3987    4.5543   -5.4037 O.3       1 ACP        -0.7980
      5 PB          7.5238    2.5317   -2.7456 P.3       1 ACP         1.7688
      6 O1B         8.6784    1.7672   -2.1705 O.2       1 ACP        -0.9167
      7 O2B         6.8535    1.8650   -4.0562 O.3       1 ACP        -0.8201
      8 C3B         7.9126    4.2144   -3.2721 C.3       1 ACP        -0.6097
      9 PA          6.1595    3.5245   -0.3149 P.3       1 ACP         1.5979
     10 O1A         6.3881    5.0035   -0.5385 O.co2     1 ACP        -0.8617
     11 O2A         6.9730    2.7625    0.7085 O.co2     1 ACP        -0.8617
     12 O3A         6.2706    2.7650   -1.7552 O.3       1 ACP        -0.8283
     13 O5'         4.5669    3.2940   -0.0211 O.3       1 ACP        -0.5783
     14 C5'         4.0922    1.9801    0.2227 C.3       1 ACP         0.1980
     15 C4'         2.5944    2.0310    0.4653 C.3       1 ACP         0.0815
     16 O4'         1.9327    2.5740   -0.6889 O.3       1 ACP        -0.4127
     17 C3'         1.9685    0.6634    0.6767 C.3       1 ACP         0.0890
     18 O3'         2.1425    0.1975    1.9977 O.3       1 ACP        -0.6221
     19 C2'         0.5176    0.9128    0.3099 C.3       1 ACP         0.1067
     20 O2'        -0.2103    1.4454    1.4152 O.3       1 ACP        -0.6053
     21 C1'         0.6219    1.9765   -0.7844 C.3       1 ACP         0.4223
     22 N9          0.4237    1.4496   -2.1357 N.pl3     1 ACP        -0.6834
     23 C8         -0.7736    1.3475   -2.7932 C.ar      1 ACP         0.5614
     24 N7         -0.6356    0.8373   -3.9991 N.2       1 ACP        -0.5751
     25 C5          0.7095    0.5981   -4.1281 C.ar      1 ACP        -0.2117
     26 C6          1.4733    0.0704   -5.1643 C.ar      1 ACP         0.7177
     27 N6          0.8693   -0.3355   -6.3666 N.pl3     1 ACP        -0.9401
     28 N1          2.8130   -0.0482   -5.0009 N.ar      1 ACP        -0.8008
     29 C2          3.3380    0.3602   -3.8204 C.ar      1 ACP         0.6565
     30 N3          2.7052    0.8841   -2.7480 N.ar      1 ACP        -0.7061
     31 C4          1.3867    0.9726   -2.9785 C.ar      1 ACP         0.5715
     32 HOG3        5.8525    4.9836   -6.0963 H         1 ACP         0.4226
     33 HOB2        6.4699    0.9648   -3.9879 H         1 ACP         0.4482
     34 H3B1        8.7348    4.1540   -3.9941 H         1 ACP         0.1012
     35 H3B2        8.2964    4.7430   -2.3930 H         1 ACP         0.1012
     36 H5'1        4.3180    1.3550   -0.6470 H         1 ACP         0.0481
     37 H5'2        4.6085    1.5739    1.0983 H         1 ACP         0.0481
     38 H4'         2.3751    2.7029    1.3156 H         1 ACP         0.0904
     39 H3'         2.4336   -0.1217   -0.0015 H         1 ACP         0.0809
     40 HO3'        1.7160   -0.6716    2.0397 H         1 ACP         0.4528
     41 H2'         0.0316    0.0155   -0.0339 H         1 ACP         0.0594
     42 HO2'       -0.1608    0.7921    2.1351 H         1 ACP         0.4344
     43 H1'        -0.1474    2.7798   -0.6651 H         1 ACP         0.1127
     44 H8         -1.7070    1.6599   -2.3451 H         1 ACP         0.1050
     45 HN61       -0.1277   -0.2866   -6.4583 H         1 ACP         0.4211
     46 HN62        1.4308   -0.7566   -7.0823 H         1 ACP         0.4211
     47 H2          4.4130    0.2505   -3.7241 H         1 ACP         0.0375
@<TRIPOS>BOND
     1    1    2 2
     2    1    3 1
     3    1    4 1
     4    1    8 1
     5    4   32 1
     6    5    6 2
     7    5    7 1
     8    5    8 1
     9    5   12 1
    10    7   33 1
    11    8   34 1
    12    8   35 1
    13    9   10 2
    14    9   11 1
    15    9   12 1
    16    9   13 1
    17   13   14 1
    18   14   15 1
    19   14   36 1
    20   14   37 1
    21   15   16 1
    22   15   17 1
    23   15   38 1
    24   16   21 1
    25   17   18 1
    26   17   19 1
    27   17   39 1
    28   18   40 1
    29   19   20 1
    30   19   21 1
    31   19   41 1
    32   20   42 1
    33   21   22 1
    34   21   43 1
    35   22   23 ar
    36   22   31 ar
    37   23   24 ar
    38   23   44 1
    39   24   25 ar
    40   25   26 ar
    41   25   31 ar
    42   26   27 1
    43   26   28 ar
    44   27   45 1
    45   27   46 1
    46   28   29 ar
    47   29   30 ar
    48   29   47 1
    49   30   31 ar
@<TRIPOS>SUBSTRUCTURE
     1 ACP         1 GROUP 0 A     ****
@<TRIPOS>MOLECULE
[[[5-(6-aminopurin-9-yl)-3,4-dihydroxy-tetrahydrofuran-2-yl]methoxy-oxido-phosphoryl]oxy-hydroxy-phosphoryl]methyl-hydroxy-phosphinate
   47    49     1     0     0
SMALL
USER_CHARGES

@<TRIPOS>ATOM
      1 PG         10.2045    0.8122   -0.0121 P.3       1 ACP         1.3516
      2 O1G         9.7927    2.1165   -0.6544 O.co2     1 ACP        -0.8379
      3 O2G        10.8233   -0.3167   -0.8036 O.co2     1 ACP        -0.8379
      4 O3G        11.1232    1.1207    1.2997 O.3       1 ACP        -0.7980
      5 PB          7.1773   -0.2785    0.0111 P.3       1 ACP         1.7688
      6 O1B         6.0954   -0.8164    0.8990 O.2       1 ACP        -0.9167
      7 O2B         7.6424   -1.2754   -1.1727 O.3       1 ACP        -0.8201
      8 C3B         8.7194    0.1330    0.8552 C.3       1 ACP        -0.6097
      9 PA          5.6604    1.4686   -1.8332 P.3       1 ACP         1.5979
     10 O1A         5.6963    0.4500   -2.9517 O.co2     1 ACP        -0.8617
     11 O2A         5.7196    2.9503   -2.1347 O.co2     1 ACP        -0.8617
     12 O3A         6.8346    1.0961   -0.7627 O.3       1 ACP        -0.8283
     13 O5'         4.3515    1.1573   -0.9028 O.3       1 ACP        -0.5783
     14 C5'         4.0922    1.9801    0.2227 C.3       1 ACP         0.1980
     15 C4'         2.5944    2.0310    0.4653 C.3       1 ACP         0.0815
     16 O4'         1.9327    2.5740   -0.6889 O.3       1 ACP        -0.4127
     17 C3'         1.9685    0.6634    0.6767 C.3       1 ACP         0.0890
     18 O3'         2.1425    0.1975    1.9977 O.3       1 ACP        -0.6221
     19 C2'         0.5176    0.9128    0.3099 C.3       1 ACP         0.1067
     20 O2'        -0.2103    1.4454    1.4152 O.3       1 ACP        -0.6053
     21 C1'         0.6219    1.9765   -0.7844 C.3       1 ACP         0.4223
     22 N9          0.4237    1.4496   -2.1357 N.pl3     1 ACP        -0.6834
     23 C8          1.4026    0.9717   -2.9660 C.ar      1 ACP         0.5614
     24 N7          0.9183    0.5619   -4.1197 N.2       1 ACP        -0.5751
     25 C5         -0.4330    0.7845   -4.0331 C.ar      1 ACP        -0.2117
     26 C6         -1.4794    0.5615   -4.9225 C.ar      1 ACP         0.7177
     27 N6         -1.2378    0.0044   -6.1899 N.pl3     1 ACP        -0.9401
     28 N1         -2.7406    0.8885   -4.5512 N.ar      1 ACP        -0.8008
     29 C2         -2.9113    1.4216   -3.3172 C.ar      1 ACP         0.6565
     30 N3         -1.9824    1.6843   -2.3721 N.ar      1 ACP        -0.7061
     31 C4         -0.7613    1.3370   -2.8054 C.ar      1 ACP         0.5715
     32 HOG3       11.9609    1.6163    1.1781 H         1 ACP         0.4226
     33 HOB2        6.9806   -1.5673   -1.8353 H         1 ACP         0.4482
     34 H3B1        9.0606   -0.7669    1.3793 H         1 ACP         0.1012
     35 H3B2        8.4751    0.8766    1.6214 H         1 ACP         0.1012
     36 H5'1        4.6070    1.5616    1.0933 H         1 ACP         0.0481
     37 H5'2        4.4825    2.9835    0.0252 H         1 ACP         0.0481
     38 H4'         2.3751    2.7029    1.3156 H         1 ACP         0.0904
     39 H3'         2.4336   -0.1217   -0.0015 H         1 ACP         0.0809
     40 HO3'        1.7160   -0.6716    2.0397 H         1 ACP         0.4528
     41 H2'         0.0316    0.0155   -0.0339 H         1 ACP         0.0594
     42 HO2'       -0.1608    0.7921    2.1351 H         1 ACP         0.4344
     43 H1'        -0.1474    2.7798   -0.6651 H         1 ACP         0.1127
     44 H8          2.4442    0.9470   -2.6763 H         1 ACP         0.1050
     45 HN61       -0.2955   -0.1901   -6.4713 H         1 ACP         0.4211
     46 HN62       -1.9987   -0.1045   -6.8334 H         1 ACP         0.4211
     47 H2         -3.9335    1.6716   -3.0534 H         1 ACP         0.0375
@<TRIPOS>BOND
     1    1    2 2
     2    1    3 1
     3    1    4 1
     4    1    8 1
     5    4   32 1
     6    5    6 2
     7    5    7 1
     8    5    8 1
     9    5   12 1
    10    7   33 1
    11    8   34 1
    12    8   35 1
    13    9   10 2
    14    9   11 1
    15    9   12 1
    16    9   13 1
    17   13   14 1
    18   14   15 1
    19   14   36 1
    20   14   37 1
    21   15   16 1
    22   15   17 1
    23   15   38 1
    24   16   21 1
    25   17   18 1
    26   17   19 1
    27   17   39 1
    28   18   40 1
    29   19   20 1
    30   19   21 1
    31   19   41 1
    32   20   42 1
    33   21   22 1
    34   21   43 1
    35   22   23 ar
    36   22   31 ar
    37   23   24 ar
    38   23   44 1
    39   24   25 ar
    40   25   26 ar
    41   25   31 ar
    42   26   27 1
    43   26   28 ar
    44   27   45 1
    45   27   46 1
    46   28   29 ar
    47   29   30 ar
    48   29   47 1
    49   30   31 ar
@<TRIPOS>SUBSTRUCTURE
     1 ACP         1 GROUP 0 A     ****
@<TRIPOS>MOLECULE
[[[5-(6-aminopurin-9-yl)-3,4-dihydroxy-tetrahydrofuran-2-yl]methoxy-oxido-phosphoryl]oxy-hydroxy-phosphoryl]methyl-hydroxy-phosphinate
   47    49     1     0     0
SMALL
USER_CHARGES

@<TRIPOS>ATOM
      1 PG         -4.4785    7.1834    2.2961 P.3       1 ACP         1.3516
      2 O1G        -5.5782    7.8128    3.1195 O.co2     1 ACP        -0.8379
      3 O2G        -4.5171    5.7331    1.8731 O.co2     1 ACP        -0.8379
      4 O3G        -4.1725    8.1187    0.9956 O.3       1 ACP        -0.7980
      5 PB         -1.2898    6.8748    2.5972 P.3       1 ACP         1.7688
      6 O1B        -0.1245    7.1997    3.4830 O.2       1 ACP        -0.9167
      7 O2B        -1.1987    7.4861    1.1040 O.3       1 ACP        -0.8201
      8 C3B        -2.8892    7.4554    3.2011 C.3       1 ACP        -0.6097
      9 PA         -1.9156    4.0919    3.3842 P.3       1 ACP         1.5979
     10 O1A        -3.2869    4.3461    3.9714 O.co2     1 ACP        -0.8617
     11 O2A        -0.7216    3.8543    4.2830 O.co2     1 ACP        -0.8617
     12 O3A        -1.5687    5.3044    2.3483 O.3       1 ACP        -0.8283
     13 O5'        -2.0402    2.8619    2.3131 O.3       1 ACP        -0.5783
     14 C5'        -0.8811    2.4285    1.6206 C.3       1 ACP         0.1980
     15 C4'        -0.1994    1.3333    2.4288 C.3       1 ACP         0.0815
     16 O4'        -1.1285    0.2356    2.5840 O.3       1 ACP        -0.4127
     17 C3'         1.0324    0.7610    1.7344 C.3       1 ACP         0.0890
     18 O3'         1.9175    0.2377    2.7247 O.3       1 ACP        -0.6221
     19 C2'         0.4468   -0.3802    0.9263 C.3       1 ACP         0.1067
     20 O2'         1.3993   -1.3703    0.5961 O.3       1 ACP        -0.6053
     21 C1'        -0.6159   -0.9100    1.8769 C.3       1 ACP         0.4223
     22 N9         -1.7127   -1.6108    1.2130 N.pl3     1 ACP        -0.6834
     23 C8         -1.7712   -2.9546    0.9544 C.ar      1 ACP         0.5614
     24 N7         -2.8883   -3.2948    0.3462 N.2       1 ACP        -0.5751
     25 C5         -3.5834   -2.1202    0.2043 C.ar      1 ACP        -0.2117
     26 C6         -4.8225   -1.8251   -0.3554 C.ar      1 ACP         0.7177
     27 N6         -5.6154   -2.8395   -0.9189 N.pl3     1 ACP        -0.9401
     28 N1         -5.2589   -0.5425   -0.3507 N.ar      1 ACP        -0.8008
     29 C2         -4.4510    0.3913    0.2069 C.ar      1 ACP         0.6565
     30 N3         -3.2368    0.2296    0.7767 N.ar      1 ACP        -0.7061
     31 C4         -2.8684   -1.0596    0.7376 C.ar      1 ACP         0.5715
     32 HOG3       -4.8992    8.2860    0.3582 H         1 ACP         0.4226
     33 HOB2       -0.4463    7.2279    0.5301 H         1 ACP         0.4482
     34 H3B1       -2.8115    8.5373    3.3572 H         1 ACP         0.1012
     35 H3B2       -3.0430    7.0001    4.1852 H         1 ACP         0.1012
     36 H5'1       -1.1770    2.0503    0.6369 H         1 ACP         0.0481
     37 H5'2       -0.2082    3.2815    1.4877 H         1 ACP         0.0481
     38 H4'         0.0403    1.7078    3.4343 H         1 ACP         0.0904
     39 H3'         1.5906    1.4859    1.1353 H         1 ACP         0.0809
     40 HO3'        2.6839   -0.1150    2.2479 H         1 ACP         0.4528
     41 H2'        -0.0017    0.0018    0.0005 H         1 ACP         0.0594
     42 HO2'        2.0953   -0.9375    0.0709 H         1 ACP         0.4344
     43 H1'        -0.1998   -1.6319    2.6178 H         1 ACP         0.1127
     44 H8         -0.9745   -3.6312    1.2318 H         1 ACP         0.1050
     45 HN61       -5.2619   -3.7766   -0.9586 H         1 ACP         0.4211
     46 HN62       -6.4834   -2.5990   -1.3590 H         1 ACP         0.4211
     47 H2         -4.8317    1.4071    0.1930 H         1 ACP         0.0375
@<TRIPOS>BOND
     1    1    2 2
     2    1    3 1
     3    1    4 1
     4    1    8 1
     5    4   32 1
     6    5    6 2
     7    5    7 1
     8    5    8 1
     9    5   12 1
    10    7   33 1
    11    8   34 1
    12    8   35 1
    13    9   10 2
    14    9   11 1
    15    9   12 1
    16    9   13 1
    17   13   14 1
    18   14   15 1
    19   14   36 1
    20   14   37 1
    21   15   16 1
    22   15   17 1
    23   15   38 1
    24   16   21 1
    25   17   18 1
    26   17   19 1
    27   17   39 1
    28   18   40 1
    29   19   20 1
    30   19   21 1
    31   19   41 1
    32   20   42 1
    33   21   22 1
    34   21   43 1
    35   22   23 ar
    36   22   31 ar
    37   23   24 ar
    38   23   44 1
    39   24   25 ar
    40   25   26 ar
    41   25   31 ar
    42   26   27 1
    43   26   28 ar
    44   27   45 1
    45   27   46 1
    46   28   29 ar
    47   29   30 ar
    48   29   47 1
    49   30   31 ar
@<TRIPOS>SUBSTRUCTURE
     1 ACP         1 GROUP 0 A     ****
@<TRIPOS>MOLECULE
[[[5-(6-aminopurin-9-yl)-3,4-dihydroxy-tetrahydrofuran-2-yl]methoxy-oxido-phosphoryl]oxy-hydroxy-phosphoryl]methyl-hydroxy-phosphinate
   47    49     1     0     0
SMALL
USER_CHARGES

@<TRIPOS>ATOM
      1 PG          9.9186    1.6117   -1.9445 P.3       1 ACP         1.3516
      2 O1G        10.5078    2.9145   -2.4334 O.co2     1 ACP        -0.8379
      3 O2G        10.5927    0.2808   -2.1856 O.co2     1 ACP        -0.8379
      4 O3G         9.5392    1.7480   -0.3642 O.3       1 ACP        -0.7980
      5 PB          6.9094    2.7047   -2.2678 P.3       1 ACP         1.7688
      6 O1B         5.5873    2.4246   -2.9171 O.2       1 ACP        -0.9167
      7 O2B         7.5817    4.1160   -2.6775 O.3       1 ACP        -0.8201
      8 C3B         8.2023    1.4953   -2.6225 C.3       1 ACP        -0.6097
      9 PA          6.0981    3.6803    0.4053 P.3       1 ACP         1.5979
     10 O1A         6.3392    5.1278    0.0358 O.co2     1 ACP        -0.8617
     11 O2A         6.3667    3.1860    1.8100 O.co2     1 ACP        -0.8617
     12 O3A         6.9081    2.7391   -0.6538 O.3       1 ACP        -0.8283
     13 O5'         4.5669    3.2940   -0.0211 O.3       1 ACP        -0.5783
     14 C5'         4.0922    1.9801    0.2227 C.3       1 ACP         0.1980
     15 C4'         2.5944    2.0310    0.4653 C.3       1 ACP         0.0815
     16 O4'         1.9327    2.5740   -0.6889 O.3       1 ACP        -0.4127
     17 C3'         1.9685    0.6634    0.6767 C.3       1 ACP         0.0890
     18 O3'         2.1425    0.1975    1.9977 O.3       1 ACP        -0.6221
     19 C2'         0.5176    0.9128    0.3099 C.3       1 ACP         0.1067
     20 O2'        -0.2103    1.4454    1.4152 O.3       1 ACP        -0.6053
     21 C1'         0.6219    1.9765   -0.7844 C.3       1 ACP         0.4223
     22 N9          0.4237    1.4496   -2.1357 N.pl3     1 ACP        -0.6834
     23 C8          1.4026    0.9717   -2.9660 C.ar      1 ACP         0.5614
     24 N7          0.9183    0.5619   -4.1197 N.2       1 ACP        -0.5751
     25 C5         -0.4330    0.7845   -4.0331 C.ar      1 ACP        -0.2117
     26 C6         -1.4794    0.5615   -4.9225 C.ar      1 ACP         0.7177
     27 N6         -1.2378    0.0044   -6.1899 N.pl3     1 ACP        -0.9401
     28 N1         -2.7406    0.8885   -4.5512 N.ar      1 ACP        -0.8008
     29 C2         -2.9113    1.4216   -3.3172 C.ar      1 ACP         0.6565
     30 N3         -1.9824    1.6843   -2.3721 N.ar      1 ACP        -0.7061
     31 C4         -0.7613    1.3370   -2.8054 C.ar      1 ACP         0.5715
     32 HOG3       10.2560    1.9543    0.2729 H         1 ACP         0.4226
     33 HOB2        7.0964    4.9467   -2.4859 H         1 ACP         0.4482
     34 H3B1        8.3107    1.4360   -3.7114 H         1 ACP         0.1012
     35 H3B2        7.8303    0.5223   -2.2843 H         1 ACP         0.1012
     36 H5'1        4.3180    1.3550   -0.6470 H         1 ACP         0.0481
     37 H5'2        4.6085    1.5739    1.0983 H         1 ACP         0.0481
     38 H4'         2.3751    2.7029    1.3156 H         1 ACP         0.0904
     39 H3'         2.4336   -0.1217   -0.0015 H         1 ACP         0.0809
     40 HO3'        1.7160   -0.6716    2.0397 H         1 ACP         0.4528
     41 H2'         0.0316    0.0155   -0.0339 H         1 ACP         0.0594
     42 HO2'       -0.1608    0.7921    2.1351 H         1 ACP         0.4344
     43 H1'        -0.1474    2.7798   -0.6651 H         1 ACP         0.1127
     44 H8          2.4442    0.9470   -2.6763 H         1 ACP         0.1050
     45 HN61       -0.2955   -0.1901   -6.4713 H         1 ACP         0.4211
     46 HN62       -1.9987   -0.1045   -6.8334 H         1 ACP         0.4211
     47 H2         -3.9335    1.6716   -3.0534 H         1 ACP         0.0375
@<TRIPOS>BOND
     1    1    2 2
     2    1    3 1
     3    1    4 1
     4    1    8 1
     5    4   32 1
     6    5    6 2
     7    5    7 1
     8    5    8 1
     9    5   12 1
    10    7   33 1
    11    8   34 1
    12    8   35 1
    13    9   10 2
    14    9   11 1
    15    9   12 1
    16    9   13 1
    17   13   14 1
    18   14   15 1
    19   14   36 1
    20   14   37 1
    21   15   16 1
    22   15   17 1
    23   15   38 1
    24   16   21 1
    25   17   18 1
    26   17   19 1
    27   17   39 1
    28   18   40 1
    29   19   20 1
    30   19   21 1
    31   19   41 1
    32   20   42 1
    33   21   22 1
    34   21   43 1
    35   22   23 ar
    36   22   31 ar
    37   23   24 ar
    38   23   44 1
    39   24   25 ar
    40   25   26 ar
    41   25   31 ar
    42   26   27 1
    43   26   28 ar
    44   27   45 1
    45   27   46 1
    46   28   29 ar
    47   29   30 ar
    48   29   47 1
    49   30   31 ar
@<TRIPOS>SUBSTRUCTURE
     1 ACP         1 GROUP 0 A     ****
@<TRIPOS>MOLECULE
[[[5-(6-aminopurin-9-yl)-3,4-dihydroxy-tetrahydrofuran-2-yl]methoxy-oxido-phosphoryl]oxy-hydroxy-phosphoryl]methyl-hydroxy-phosphinate
   47    49     1     0     0
SMALL
USER_CHARGES

@<TRIPOS>ATOM
      1 PG         -0.0062    7.8055   -1.7201 P.3       1 ACP         1.3516
      2 O1G        -0.5932    8.0055   -0.3421 O.co2     1 ACP        -0.8379
      3 O2G        -0.7918    8.0868   -2.9800 O.co2     1 ACP        -0.8379
      4 O3G         1.4408    8.5529   -1.8062 O.3       1 ACP        -0.7980
      5 PB         -0.4906    4.6265   -1.6037 P.3       1 ACP         1.7688
      6 O1B         0.1927    3.2969   -1.7195 O.2       1 ACP        -0.9167
      7 O2B        -1.6744    4.8771   -2.6750 O.3       1 ACP        -0.8201
      8 C3B         0.5894    6.0577   -1.8161 C.3       1 ACP        -0.6097
      9 PA         -0.5788    5.0303    1.3262 P.3       1 ACP         1.5979
     10 O1A        -1.7294    5.1711    2.2989 O.co2     1 ACP        -0.8617
     11 O2A         0.5650    6.0209    1.3331 O.co2     1 ACP        -0.8617
     12 O3A        -1.1922    4.9364   -0.1832 O.3       1 ACP        -0.8283
     13 O5'         0.0181    3.5132    1.4596 O.3       1 ACP        -0.5783
     14 C5'        -0.8811    2.4285    1.6206 C.3       1 ACP         0.1980
     15 C4'        -0.1994    1.3333    2.4288 C.3       1 ACP         0.0815
     16 O4'        -1.1285    0.2356    2.5840 O.3       1 ACP        -0.4127
     17 C3'         1.0324    0.7610    1.7344 C.3       1 ACP         0.0890
     18 O3'         1.9175    0.2377    2.7247 O.3       1 ACP        -0.6221
     19 C2'         0.4468   -0.3802    0.9263 C.3       1 ACP         0.1067
     20 O2'         1.3993   -1.3703    0.5961 O.3       1 ACP        -0.6053
     21 C1'        -0.6159   -0.9100    1.8769 C.3       1 ACP         0.4223
     22 N9         -1.7127   -1.6108    1.2130 N.pl3     1 ACP        -0.6834
     23 C8         -2.8641   -1.0399    0.7392 C.ar      1 ACP         0.5614
     24 N7         -3.6659   -1.9257    0.1858 N.2       1 ACP        -0.5751
     25 C5         -3.0053   -3.1223    0.3069 C.ar      1 ACP        -0.2117
     26 C6         -3.3321   -4.4178   -0.0813 C.ar      1 ACP         0.7177
     27 N6         -4.5476   -4.6866   -0.7335 N.pl3     1 ACP        -0.9401
     28 N1         -2.4608   -5.4225    0.1773 N.ar      1 ACP        -0.8008
     29 C2         -1.3053   -5.1020    0.8081 C.ar      1 ACP         0.6565
     30 N3         -0.8788   -3.8921    1.2315 N.ar      1 ACP        -0.7061
     31 C4         -1.7870   -2.9477    0.9438 C.ar      1 ACP         0.5715
     32 HOG3        1.4767    9.5216   -1.6560 H         1 ACP         0.4226
     33 HOB2       -2.4436    4.2686   -2.6840 H         1 ACP         0.4482
     34 H3B1        1.0822    5.9593   -2.7900 H         1 ACP         0.1012
     35 H3B2        1.3713    5.9834   -1.0526 H         1 ACP         0.1012
     36 H5'1       -1.7769    2.7851    2.1387 H         1 ACP         0.0481
     37 H5'2       -1.1653    2.0543    0.6320 H         1 ACP         0.0481
     38 H4'         0.0403    1.7078    3.4343 H         1 ACP         0.0904
     39 H3'         1.5906    1.4859    1.1353 H         1 ACP         0.0809
     40 HO3'        2.6839   -0.1150    2.2479 H         1 ACP         0.4528
     41 H2'        -0.0017    0.0018    0.0005 H         1 ACP         0.0594
     42 HO2'        0.9369   -2.0558    0.0825 H         1 ACP         0.4344
     43 H1'        -0.1998   -1.6319    2.6178 H         1 ACP         0.1127
     44 H8         -3.0609    0.0200    0.8250 H         1 ACP         0.1050
     45 HN61       -5.2046   -3.9433   -0.8775 H         1 ACP         0.4211
     46 HN62       -4.7849   -5.6332   -0.9625 H         1 ACP         0.4211
     47 H2         -0.6318   -5.9307    0.9993 H         1 ACP         0.0375
@<TRIPOS>BOND
     1    1    2 2
     2    1    3 1
     3    1    4 1
     4    1    8 1
     5    4   32 1
     6    5    6 2
     7    5    7 1
     8    5    8 1
     9    5   12 1
    10    7   33 1
    11    8   34 1
    12    8   35 1
    13    9   10 2
    14    9   11 1
    15    9   12 1
    16    9   13 1
    17   13   14 1
    18   14   15 1
    19   14   36 1
    20   14   37 1
    21   15   16 1
    22   15   17 1
    23   15   38 1
    24   16   21 1
    25   17   18 1
    26   17   19 1
    27   17   39 1
    28   18   40 1
    29   19   20 1
    30   19   21 1
    31   19   41 1
    32   20   42 1
    33   21   22 1
    34   21   43 1
    35   22   23 ar
    36   22   31 ar
    37   23   24 ar
    38   23   44 1
    39   24   25 ar
    40   25   26 ar
    41   25   31 ar
    42   26   27 1
    43   26   28 ar
    44   27   45 1
    45   27   46 1
    46   28   29 ar
    47   29   30 ar
    48   29   47 1
    49   30   31 ar
@<TRIPOS>SUBSTRUCTURE
     1 ACP         1 GROUP 0 A     ****
@<TRIPOS>MOLECULE
[[[5-(6-aminopurin-9-yl)-3,4-dihydroxy-tetrahydrofuran-2-yl]methoxy-oxido-phosphoryl]oxy-hydroxy-phosphoryl]methyl-hydroxy-phosphinate
   47    49     1     0     0
SMALL
USER_CHARGES

@<TRIPOS>ATOM
      1 PG         -3.1757    7.2947    5.0692 P.3       1 ACP         1.3516
      2 O1G        -3.5821    7.3039    3.6138 O.co2     1 ACP        -0.8379
      3 O2G        -2.2607    8.3435    5.6578 O.co2     1 ACP        -0.8379
      4 O3G        -4.5058    7.1515    6.0021 O.3       1 ACP        -0.7980
      5 PB         -0.9612    5.0147    4.5677 P.3       1 ACP         1.7688
      6 O1B        -0.5136    3.6512    5.0019 O.2       1 ACP        -0.9167
      7 O2B         0.1336    6.1858    4.7719 O.3       1 ACP        -0.8201
      8 C3B        -2.4239    5.6422    5.4201 C.3       1 ACP        -0.6097
      9 PA         -2.5403    4.4097    2.1396 P.3       1 ACP         1.5979
     10 O1A        -2.3645    4.8018    0.6886 O.co2     1 ACP        -0.8617
     11 O2A        -3.8743    4.5856    2.8318 O.co2     1 ACP        -0.8617
     12 O3A        -1.3835    5.1562    3.0160 O.3       1 ACP        -0.8283
     13 O5'        -2.0402    2.8619    2.3131 O.3       1 ACP        -0.5783
     14 C5'        -0.8811    2.4285    1.6206 C.3       1 ACP         0.1980
     15 C4'        -0.1994    1.3333    2.4288 C.3       1 ACP         0.0815
     16 O4'        -1.1285    0.2356    2.5840 O.3       1 ACP        -0.4127
     17 C3'         1.0324    0.7610    1.7344 C.3       1 ACP         0.0890
     18 O3'         1.9175    0.2377    2.7247 O.3       1 ACP        -0.6221
     19 C2'         0.4468   -0.3802    0.9263 C.3       1 ACP         0.1067
     20 O2'         1.3993   -1.3703    0.5961 O.3       1 ACP        -0.6053
     21 C1'        -0.6159   -0.9100    1.8769 C.3       1 ACP         0.4223
     22 N9         -1.7127   -1.6108    1.2130 N.pl3     1 ACP        -0.6834
     23 C8         -2.0877   -2.9101    1.4304 C.ar      1 ACP         0.5614
     24 N7         -3.1152   -3.2613    0.6857 N.2       1 ACP        -0.5751
     25 C5         -3.4186   -2.1409   -0.0462 C.ar      1 ACP        -0.2117
     26 C6         -4.3953   -1.8809   -1.0023 C.ar      1 ACP         0.7177
     27 N6         -5.3118   -2.8767   -1.3812 N.pl3     1 ACP        -0.9401
     28 N1         -4.4538   -0.6507   -1.5667 N.ar      1 ACP        -0.8008
     29 C2         -3.5442    0.2679   -1.1609 C.ar      1 ACP         0.6565
     30 N3         -2.5561    0.1361   -0.2491 N.ar      1 ACP        -0.7061
     31 C4         -2.5568   -1.1019    0.2674 C.ar      1 ACP         0.5715
     32 HOG3       -5.1982    7.8435    5.9389 H         1 ACP         0.4226
     33 HOB2        0.9972    6.1141    4.3123 H         1 ACP         0.4482
     34 H3B1       -2.2121    5.6285    6.4952 H         1 ACP         0.1012
     35 H3B2       -3.2297    4.9219    5.2432 H         1 ACP         0.1012
     36 H5'1       -1.1770    2.0503    0.6369 H         1 ACP         0.0481
     37 H5'2       -0.2082    3.2815    1.4877 H         1 ACP         0.0481
     38 H4'         0.0403    1.7078    3.4343 H         1 ACP         0.0904
     39 H3'         1.5906    1.4859    1.1353 H         1 ACP         0.0809
     40 HO3'        2.6839   -0.1150    2.2479 H         1 ACP         0.4528
     41 H2'        -0.0017    0.0018    0.0005 H         1 ACP         0.0594
     42 HO2'        2.0953   -0.9375    0.0709 H         1 ACP         0.4344
     43 H1'        -0.1998   -1.6319    2.6178 H         1 ACP         0.1127
     44 H8         -1.5778   -3.5473    2.1399 H         1 ACP         0.1050
     45 HN61       -5.2294   -3.7965   -0.9914 H         1 ACP         0.4211
     46 HN62       -5.9774   -2.6837   -2.1055 H         1 ACP         0.4211
     47 H2         -3.6201    1.2414   -1.6336 H         1 ACP         0.0375
@<TRIPOS>BOND
     1    1    2 2
     2    1    3 1
     3    1    4 1
     4    1    8 1
     5    4   32 1
     6    5    6 2
     7    5    7 1
     8    5    8 1
     9    5   12 1
    10    7   33 1
    11    8   34 1
    12    8   35 1
    13    9   10 2
    14    9   11 1
    15    9   12 1
    16    9   13 1
    17   13   14 1
    18   14   15 1
    19   14   36 1
    20   14   37 1
    21   15   16 1
    22   15   17 1
    23   15   38 1
    24   16   21 1
    25   17   18 1
    26   17   19 1
    27   17   39 1
    28   18   40 1
    29   19   20 1
    30   19   21 1
    31   19   41 1
    32   20   42 1
    33   21   22 1
    34   21   43 1
    35   22   23 ar
    36   22   31 ar
    37   23   24 ar
    38   23   44 1
    39   24   25 ar
    40   25   26 ar
    41   25   31 ar
    42   26   27 1
    43   26   28 ar
    44   27   45 1
    45   27   46 1
    46   28   29 ar
    47   29   30 ar
    48   29   47 1
    49   30   31 ar
@<TRIPOS>SUBSTRUCTURE
     1 ACP         1 GROUP 0 A     ****
@<TRIPOS>MOLECULE
[[[5-(6-aminopurin-9-yl)-3,4-dihydroxy-tetrahydrofuran-2-yl]methoxy-oxido-phosphoryl]oxy-hydroxy-phosphoryl]methyl-hydroxy-phosphinate
   47    49     1     0     0
SMALL
USER_CHARGES

@<TRIPOS>ATOM
      1 PG          4.9804    6.8963    1.5810 P.3       1 ACP         1.3516
      2 O1G         5.6814    6.2642    0.4010 O.co2     1 ACP        -0.8379
      3 O2G         5.1615    8.3527    1.9414 O.co2     1 ACP        -0.8379
      4 O3G         3.3883    6.5489    1.5151 O.3       1 ACP        -0.7980
      5 PB          5.0228    4.1416    3.2436 P.3       1 ACP         1.7688
      6 O1B         3.5632    3.8071    3.1677 O.2       1 ACP        -0.9167
      7 O2B         5.7451    3.7196    4.6263 O.3       1 ACP        -0.8201
      8 C3B         5.4104    5.8971    3.0762 C.3       1 ACP        -0.6097
      9 PA          6.2530    1.9160    1.7309 P.3       1 ACP         1.5979
     10 O1A         6.6842    1.1958    2.9899 O.co2     1 ACP        -0.8617
     11 O2A         7.1033    1.8634    0.4804 O.co2     1 ACP        -0.8617
     12 O3A         5.9577    3.4761    2.1083 O.3       1 ACP        -0.8283
     13 O5'         4.7294    1.4426    1.3699 O.3       1 ACP        -0.5783
     14 C5'         4.0922    1.9801    0.2227 C.3       1 ACP         0.1980
     15 C4'         2.5944    2.0310    0.4653 C.3       1 ACP         0.0815
     16 O4'         1.9327    2.5740   -0.6889 O.3       1 ACP        -0.4127
     17 C3'         1.9685    0.6634    0.6767 C.3       1 ACP         0.0890
     18 O3'         2.1425    0.1975    1.9977 O.3       1 ACP        -0.6221
     19 C2'         0.5176    0.9128    0.3099 C.3       1 ACP         0.1067
     20 O2'        -0.2103    1.4454    1.4152 O.3       1 ACP        -0.6053
     21 C1'         0.6219    1.9765   -0.7844 C.3       1 ACP         0.4223
     22 N9          0.4237    1.4496   -2.1357 N.pl3     1 ACP        -0.6834
     23 C8          1.4026    0.9717   -2.9660 C.ar      1 ACP         0.5614
     24 N7          0.9183    0.5619   -4.1197 N.2       1 ACP        -0.5751
     25 C5         -0.4330    0.7845   -4.0331 C.ar      1 ACP        -0.2117
     26 C6         -1.4794    0.5615   -4.9225 C.ar      1 ACP         0.7177
     27 N6         -1.2378    0.0044   -6.1899 N.pl3     1 ACP        -0.9401
     28 N1         -2.7406    0.8885   -4.5512 N.ar      1 ACP        -0.8008
     29 C2         -2.9113    1.4216   -3.3172 C.ar      1 ACP         0.6565
     30 N3         -1.9824    1.6843   -2.3721 N.ar      1 ACP        -0.7061
     31 C4         -0.7613    1.3370   -2.8054 C.ar      1 ACP         0.5715
     32 HOG3        2.8771    6.8441    0.7316 H         1 ACP         0.4226
     33 HOB2        5.7531    2.7745    4.8888 H         1 ACP         0.4482
     34 H3B1        6.4911    6.0126    3.2166 H         1 ACP         0.1012
     35 H3B2        4.9223    6.4125    3.9103 H         1 ACP         0.1012
     36 H5'1        4.4844    2.9853    0.0382 H         1 ACP         0.0481
     37 H5'2        4.3192    1.3445   -0.6390 H         1 ACP         0.0481
     38 H4'         2.3751    2.7029    1.3156 H         1 ACP         0.0904
     39 H3'         2.4336   -0.1217   -0.0015 H         1 ACP         0.0809
     40 HO3'        3.0987    0.1465    2.1461 H         1 ACP         0.4528
     41 H2'         0.0316    0.0155   -0.0339 H         1 ACP         0.0594
     42 HO2'       -1.1270    1.5823    1.1180 H         1 ACP         0.4344
     43 H1'        -0.1474    2.7798   -0.6651 H         1 ACP         0.1127
     44 H8          2.4442    0.9470   -2.6763 H         1 ACP         0.1050
     45 HN61       -0.2955   -0.1901   -6.4713 H         1 ACP         0.4211
     46 HN62       -1.9987   -0.1045   -6.8334 H         1 ACP         0.4211
     47 H2         -3.9335    1.6716   -3.0534 H         1 ACP         0.0375
@<TRIPOS>BOND
     1    1    2 2
     2    1    3 1
     3    1    4 1
     4    1    8 1
     5    4   32 1
     6    5    6 2
     7    5    7 1
     8    5    8 1
     9    5   12 1
    10    7   33 1
    11    8   34 1
    12    8   35 1
    13    9   10 2
    14    9   11 1
    15    9   12 1
    16    9   13 1
    17   13   14 1
    18   14   15 1
    19   14   36 1
    20   14   37 1
    21   15   16 1
    22   15   17 1
    23   15   38 1
    24   16   21 1
    25   17   18 1
    26   17   19 1
    27   17   39 1
    28   18   40 1
    29   19   20 1
    30   19   21 1
    31   19   41 1
    32   20   42 1
    33   21   22 1
    34   21   43 1
    35   22   23 ar
    36   22   31 ar
    37   23   24 ar
    38   23   44 1
    39   24   25 ar
    40   25   26 ar
    41   25   31 ar
    42   26   27 1
    43   26   28 ar
    44   27   45 1
    45   27   46 1
    46   28   29 ar
    47   29   30 ar
    48   29   47 1
    49   30   31 ar
@<TRIPOS>SUBSTRUCTURE
     1 ACP         1 GROUP 0 A     ****
@<TRIPOS>MOLECULE
[[[5-(6-aminopurin-9-yl)-3,4-dihydroxy-tetrahydrofuran-2-yl]methoxy-oxido-phosphoryl]oxy-hydroxy-phosphoryl]methyl-hydroxy-phosphinate
   47    49     1     0     0
SMALL
USER_CHARGES

@<TRIPOS>ATOM
      1 PG          7.8407    4.2972   -1.6004 P.3       1 ACP         1.3516
      2 O1G         6.4119    4.2787   -1.1088 O.co2     1 ACP        -0.8379
      3 O2G         8.2477    3.6833   -2.9200 O.co2     1 ACP        -0.8379
      4 O3G         8.4262    5.8165   -1.5066 O.3       1 ACP        -0.7980
      5 PB          8.6598    1.8325    0.2991 P.3       1 ACP         1.7688
      6 O1B         9.6134    1.4020    1.3732 O.2       1 ACP        -0.9167
      7 O2B         8.7177    0.9503   -1.0537 O.3       1 ACP        -0.8201
      8 C3B         8.8855    3.5262   -0.2840 C.3       1 ACP        -0.6097
      9 PA          6.1204    0.6012    1.1884 P.3       1 ACP         1.5979
     10 O1A         6.5786    0.1474    2.5573 O.co2     1 ACP        -0.8617
     11 O2A         5.9613   -0.3918    0.0578 O.co2     1 ACP        -0.8617
     12 O3A         7.0956    1.8144    0.6976 O.3       1 ACP        -0.8283
     13 O5'         4.7294    1.4426    1.3699 O.3       1 ACP        -0.5783
     14 C5'         4.0922    1.9801    0.2227 C.3       1 ACP         0.1980
     15 C4'         2.5944    2.0310    0.4653 C.3       1 ACP         0.0815
     16 O4'         1.9327    2.5740   -0.6889 O.3       1 ACP        -0.4127
     17 C3'         1.9685    0.6634    0.6767 C.3       1 ACP         0.0890
     18 O3'         2.1425    0.1975    1.9977 O.3       1 ACP        -0.6221
     19 C2'         0.5176    0.9128    0.3099 C.3       1 ACP         0.1067
     20 O2'        -0.2103    1.4454    1.4152 O.3       1 ACP        -0.6053
     21 C1'         0.6219    1.9765   -0.7844 C.3       1 ACP         0.4223
     22 N9          0.4237    1.4496   -2.1357 N.pl3     1 ACP        -0.6834
     23 C8          1.4026    0.9717   -2.9660 C.ar      1 ACP         0.5614
     24 N7          0.9183    0.5619   -4.1197 N.2       1 ACP        -0.5751
     25 C5         -0.4330    0.7845   -4.0331 C.ar      1 ACP        -0.2117
     26 C6         -1.4794    0.5615   -4.9225 C.ar      1 ACP         0.7177
     27 N6         -1.2378    0.0044   -6.1899 N.pl3     1 ACP        -0.9401
     28 N1         -2.7406    0.8885   -4.5512 N.ar      1 ACP        -0.8008
     29 C2         -2.9113    1.4216   -3.3172 C.ar      1 ACP         0.6565
     30 N3         -1.9824    1.6843   -2.3721 N.ar      1 ACP        -0.7061
     31 C4         -0.7613    1.3370   -2.8054 C.ar      1 ACP         0.5715
     32 HOG3        7.9760    6.5236   -2.0161 H         1 ACP         0.4226
     33 HOB2        8.5254   -0.0102   -1.0030 H         1 ACP         0.4482
     34 H3B1        9.9224    3.6238   -0.6251 H         1 ACP         0.1012
     35 H3B2        8.7718    4.1811    0.5865 H         1 ACP         0.1012
     36 H5'1        4.4844    2.9853    0.0382 H         1 ACP         0.0481
     37 H5'2        4.3192    1.3445   -0.6390 H         1 ACP         0.0481
     38 H4'         2.3751    2.7029    1.3156 H         1 ACP         0.0904
     39 H3'         2.4336   -0.1217   -0.0015 H         1 ACP         0.0809
     40 HO3'        3.0987    0.1465    2.1461 H         1 ACP         0.4528
     41 H2'         0.0316    0.0155   -0.0339 H         1 ACP         0.0594
     42 HO2'       -0.1608    0.7921    2.1351 H         1 ACP         0.4344
     43 H1'        -0.1474    2.7798   -0.6651 H         1 ACP         0.1127
     44 H8          2.4442    0.9470   -2.6763 H         1 ACP         0.1050
     45 HN61       -0.2955   -0.1901   -6.4713 H         1 ACP         0.4211
     46 HN62       -1.9987   -0.1045   -6.8334 H         1 ACP         0.4211
     47 H2         -3.9335    1.6716   -3.0534 H         1 ACP         0.0375
@<TRIPOS>BOND
     1    1    2 2
     2    1    3 1
     3    1    4 1
     4    1    8 1
     5    4   32 1
     6    5    6 2
     7    5    7 1
     8    5    8 1
     9    5   12 1
    10    7   33 1
    11    8   34 1
    12    8   35 1
    13    9   10 2
    14    9   11 1
    15    9   12 1
    16    9   13 1
    17   13   14 1
    18   14   15 1
    19   14   36 1
    20   14   37 1
    21   15   16 1
    22   15   17 1
    23   15   38 1
    24   16   21 1
    25   17   18 1
    26   17   19 1
    27   17   39 1
    28   18   40 1
    29   19   20 1
    30   19   21 1
    31   19   41 1
    32   20   42 1
    33   21   22 1
    34   21   43 1
    35   22   23 ar
    36   22   31 ar
    37   23   24 ar
    38   23   44 1
    39   24   25 ar
    40   25   26 ar
    41   25   31 ar
    42   26   27 1
    43   26   28 ar
    44   27   45 1
    45   27   46 1
    46   28   29 ar
    47   29   30 ar
    48   29   47 1
    49   30   31 ar
@<TRIPOS>SUBSTRUCTURE
     1 ACP         1 GROUP 0 A     ****
@<TRIPOS>MOLECULE
[[[5-(6-aminopurin-9-yl)-3,4-dihydroxy-tetrahydrofuran-2-yl]methoxy-oxido-phosphoryl]oxy-hydroxy-phosphoryl]methyl-hydroxy-phosphinate
   47    49     1     0     0
SMALL
USER_CHARGES

@<TRIPOS>ATOM
      1 PG          5.1643    7.1829   -2.5682 P.3       1 ACP         1.3516
      2 O1G         5.8934    8.5052   -2.5122 O.co2     1 ACP        -0.8379
      3 O2G         4.4213    6.6204   -1.3786 O.co2     1 ACP        -0.8379
      4 O3G         4.1910    7.1559   -3.8766 O.3       1 ACP        -0.7980
      5 PB          5.9673    4.1613   -3.3294 P.3       1 ACP         1.7688
      6 O1B         7.1024    3.2916   -3.7803 O.2       1 ACP        -0.9167
      7 O2B         4.6961    4.1899   -4.3269 O.3       1 ACP        -0.8201
      8 C3B         6.3836    5.9051   -3.1157 C.3       1 ACP        -0.6097
      9 PA          5.9686    3.7223   -0.4032 P.3       1 ACP         1.5979
     10 O1A         6.3362    5.1287    0.0170 O.co2     1 ACP        -0.8617
     11 O2A         6.9928    2.6093   -0.3583 O.co2     1 ACP        -0.8617
     12 O3A         5.3191    3.7875   -1.8990 O.3       1 ACP        -0.8283
     13 O5'         4.6405    3.2701    0.4379 O.3       1 ACP        -0.5783
     14 C5'         4.0922    1.9801    0.2227 C.3       1 ACP         0.1980
     15 C4'         2.5944    2.0310    0.4653 C.3       1 ACP         0.0815
     16 O4'         1.9327    2.5740   -0.6889 O.3       1 ACP        -0.4127
     17 C3'         1.9685    0.6634    0.6767 C.3       1 ACP         0.0890
     18 O3'         2.1425    0.1975    1.9977 O.3       1 ACP        -0.6221
     19 C2'         0.5176    0.9128    0.3099 C.3       1 ACP         0.1067
     20 O2'        -0.2103    1.4454    1.4152 O.3       1 ACP        -0.6053
     21 C1'         0.6219    1.9765   -0.7844 C.3       1 ACP         0.4223
     22 N9          0.4237    1.4496   -2.1357 N.pl3     1 ACP        -0.6834
     23 C8          1.4026    0.9717   -2.9660 C.ar      1 ACP         0.5614
     24 N7          0.9183    0.5619   -4.1197 N.2       1 ACP        -0.5751
     25 C5         -0.4330    0.7845   -4.0331 C.ar      1 ACP        -0.2117
     26 C6         -1.4794    0.5615   -4.9225 C.ar      1 ACP         0.7177
     27 N6         -1.2378    0.0044   -6.1899 N.pl3     1 ACP        -0.9401
     28 N1         -2.7406    0.8885   -4.5512 N.ar      1 ACP        -0.8008
     29 C2         -2.9113    1.4216   -3.3172 C.ar      1 ACP         0.6565
     30 N3         -1.9824    1.6843   -2.3721 N.ar      1 ACP        -0.7061
     31 C4         -0.7613    1.3370   -2.8054 C.ar      1 ACP         0.5715
     32 HOG3        3.4864    7.8346   -3.9495 H         1 ACP         0.4226
     33 HOB2        4.2267    3.3512   -4.5223 H         1 ACP         0.4482
     34 H3B1        6.7944    6.2664   -4.0652 H         1 ACP         0.1012
     35 H3B2        7.1922    5.9520   -2.3784 H         1 ACP         0.1012
     36 H5'1        4.3030    1.6731   -0.8066 H         1 ACP         0.0481
     37 H5'2        4.5679    1.2740    0.9106 H         1 ACP         0.0481
     38 H4'         2.3751    2.7029    1.3156 H         1 ACP         0.0904
     39 H3'         2.4336   -0.1217   -0.0015 H         1 ACP         0.0809
     40 HO3'        1.7160   -0.6716    2.0397 H         1 ACP         0.4528
     41 H2'         0.0316    0.0155   -0.0339 H         1 ACP         0.0594
     42 HO2'       -0.1608    0.7921    2.1351 H         1 ACP         0.4344
     43 H1'        -0.1474    2.7798   -0.6651 H         1 ACP         0.1127
     44 H8          2.4442    0.9470   -2.6763 H         1 ACP         0.1050
     45 HN61       -0.2955   -0.1901   -6.4713 H         1 ACP         0.4211
     46 HN62       -1.9987   -0.1045   -6.8334 H         1 ACP         0.4211
     47 H2         -3.9335    1.6716   -3.0534 H         1 ACP         0.0375
@<TRIPOS>BOND
     1    1    2 2
     2    1    3 1
     3    1    4 1
     4    1    8 1
     5    4   32 1
     6    5    6 2
     7    5    7 1
     8    5    8 1
     9    5   12 1
    10    7   33 1
    11    8   34 1
    12    8   35 1
    13    9   10 2
    14    9   11 1
    15    9   12 1
    16    9   13 1
    17   13   14 1
    18   14   15 1
    19   14   36 1
    20   14   37 1
    21   15   16 1
    22   15   17 1
    23   15   38 1
    24   16   21 1
    25   17   18 1
    26   17   19 1
    27   17   39 1
    28   18   40 1
    29   19   20 1
    30   19   21 1
    31   19   41 1
    32   20   42 1
    33   21   22 1
    34   21   43 1
    35   22   23 ar
    36   22   31 ar
    37   23   24 ar
    38   23   44 1
    39   24   25 ar
    40   25   26 ar
    41   25   31 ar
    42   26   27 1
    43   26   28 ar
    44   27   45 1
    45   27   46 1
    46   28   29 ar
    47   29   30 ar
    48   29   47 1
    49   30   31 ar
@<TRIPOS>SUBSTRUCTURE
     1 ACP         1 GROUP 0 A     ****
@<TRIPOS>MOLECULE
[[[5-(6-aminopurin-9-yl)-3,4-dihydroxy-tetrahydrofuran-2-yl]methoxy-oxido-phosphoryl]oxy-hydroxy-phosphoryl]methyl-hydroxy-phosphinate
   47    49     1     0     0
SMALL
USER_CHARGES

@<TRIPOS>ATOM
      1 PG         -3.5823    6.1950    1.2403 P.3       1 ACP         1.3516
      2 O1G        -3.3131    7.6563    0.9653 O.co2     1 ACP        -0.8379
      3 O2G        -2.5001    5.2496    1.7081 O.co2     1 ACP        -0.8379
      4 O3G        -4.8806    6.0579    2.2178 O.3       1 ACP        -0.7980
      5 PB         -4.8157    3.7433   -0.4395 P.3       1 ACP         1.7688
      6 O1B        -5.3972    3.3625   -1.7680 O.2       1 ACP        -0.9167
      7 O2B        -5.7991    3.5153    0.8225 O.3       1 ACP        -0.8201
      8 C3B        -4.3242    5.4743   -0.2924 C.3       1 ACP        -0.6097
      9 PA         -1.9977    2.8866   -0.7226 P.3       1 ACP         1.5979
     10 O1A        -1.3565    4.2551   -0.6463 O.co2     1 ACP        -0.8617
     11 O2A        -2.1290    2.1671   -2.0473 O.co2     1 ACP        -0.8617
     12 O3A        -3.4654    2.9679   -0.0136 O.3       1 ACP        -0.8283
     13 O5'        -1.2434    1.9102    0.3513 O.3       1 ACP        -0.5783
     14 C5'        -0.8811    2.4285    1.6206 C.3       1 ACP         0.1980
     15 C4'        -0.1994    1.3333    2.4288 C.3       1 ACP         0.0815
     16 O4'        -1.1285    0.2356    2.5840 O.3       1 ACP        -0.4127
     17 C3'         1.0324    0.7610    1.7344 C.3       1 ACP         0.0890
     18 O3'         1.9175    0.2377    2.7247 O.3       1 ACP        -0.6221
     19 C2'         0.4468   -0.3802    0.9263 C.3       1 ACP         0.1067
     20 O2'         1.3993   -1.3703    0.5961 O.3       1 ACP        -0.6053
     21 C1'        -0.6159   -0.9100    1.8769 C.3       1 ACP         0.4223
     22 N9         -1.7127   -1.6108    1.2130 N.pl3     1 ACP        -0.6834
     23 C8         -2.8641   -1.0399    0.7392 C.ar      1 ACP         0.5614
     24 N7         -3.6659   -1.9257    0.1858 N.2       1 ACP        -0.5751
     25 C5         -3.0053   -3.1223    0.3069 C.ar      1 ACP        -0.2117
     26 C6         -3.3321   -4.4178   -0.0813 C.ar      1 ACP         0.7177
     27 N6         -4.5476   -4.6866   -0.7335 N.pl3     1 ACP        -0.9401
     28 N1         -2.4608   -5.4225    0.1773 N.ar      1 ACP        -0.8008
     29 C2         -1.3053   -5.1020    0.8081 C.ar      1 ACP         0.6565
     30 N3         -0.8788   -3.8921    1.2315 N.ar      1 ACP        -0.7061
     31 C4         -1.7870   -2.9477    0.9438 C.ar      1 ACP         0.5715
     32 HOG3       -4.8457    6.4779    3.1036 H         1 ACP         0.4226
     33 HOB2       -6.1276    2.6105    1.0114 H         1 ACP         0.4482
     34 H3B1       -5.2025    6.0887   -0.5209 H         1 ACP         0.1012
     35 H3B2       -3.5869    5.6646   -1.0796 H         1 ACP         0.1012
     36 H5'1       -0.2034    3.2760    1.4766 H         1 ACP         0.0481
     37 H5'2       -1.7842    2.7761    2.1321 H         1 ACP         0.0481
     38 H4'         0.0403    1.7078    3.4343 H         1 ACP         0.0904
     39 H3'         1.5906    1.4859    1.1353 H         1 ACP         0.0809
     40 HO3'        2.6839   -0.1150    2.2479 H         1 ACP         0.4528
     41 H2'        -0.0017    0.0018    0.0005 H         1 ACP         0.0594
     42 HO2'        2.0953   -0.9375    0.0709 H         1 ACP         0.4344
     43 H1'        -0.1998   -1.6319    2.6178 H         1 ACP         0.1127
     44 H8         -3.0609    0.0200    0.8250 H         1 ACP         0.1050
     45 HN61       -5.2046   -3.9433   -0.8775 H         1 ACP         0.4211
     46 HN62       -4.7849   -5.6332   -0.9625 H         1 ACP         0.4211
     47 H2         -0.6318   -5.9307    0.9993 H         1 ACP         0.0375
@<TRIPOS>BOND
     1    1    2 2
     2    1    3 1
     3    1    4 1
     4    1    8 1
     5    4   32 1
     6    5    6 2
     7    5    7 1
     8    5    8 1
     9    5   12 1
    10    7   33 1
    11    8   34 1
    12    8   35 1
    13    9   10 2
    14    9   11 1
    15    9   12 1
    16    9   13 1
    17   13   14 1
    18   14   15 1
    19   14   36 1
    20   14   37 1
    21   15   16 1
    22   15   17 1
    23   15   38 1
    24   16   21 1
    25   17   18 1
    26   17   19 1
    27   17   39 1
    28   18   40 1
    29   19   20 1
    30   19   21 1
    31   19   41 1
    32   20   42 1
    33   21   22 1
    34   21   43 1
    35   22   23 ar
    36   22   31 ar
    37   23   24 ar
    38   23   44 1
    39   24   25 ar
    40   25   26 ar
    41   25   31 ar
    42   26   27 1
    43   26   28 ar
    44   27   45 1
    45   27   46 1
    46   28   29 ar
    47   29   30 ar
    48   29   47 1
    49   30   31 ar
@<TRIPOS>SUBSTRUCTURE
     1 ACP         1 GROUP 0 A     ****
@<TRIPOS>MOLECULE
[[[5-(6-aminopurin-9-yl)-3,4-dihydroxy-tetrahydrofuran-2-yl]methoxy-oxido-phosphoryl]oxy-hydroxy-phosphoryl]methyl-hydroxy-phosphinate
   47    49     1     0     0
SMALL
USER_CHARGES

@<TRIPOS>ATOM
      1 PG         -0.9615    5.5919   -1.7874 P.3       1 ACP         1.3516
      2 O1G        -1.0690    4.2087   -1.1887 O.co2     1 ACP        -0.8379
      3 O2G         0.3687    6.2197   -2.1338 O.co2     1 ACP        -0.8379
      4 O3G        -1.9646    5.7073   -3.0682 O.3       1 ACP        -0.7980
      5 PB         -1.3773    7.0013    1.0753 P.3       1 ACP         1.7688
      6 O1B        -2.2233    7.9880    1.8229 O.2       1 ACP        -0.9167
      7 O2B         0.1932    7.3745    0.9981 O.3       1 ACP        -0.8201
      8 C3B        -1.8441    6.7533   -0.6511 C.3       1 ACP        -0.6097
      9 PA         -2.5929    4.4189    1.8558 P.3       1 ACP         1.5979
     10 O1A        -3.1012    4.0084    0.4909 O.co2     1 ACP        -0.8617
     11 O2A        -3.5438    4.9443    2.9091 O.co2     1 ACP        -0.8617
     12 O3A        -1.3812    5.4927    1.6499 O.3       1 ACP        -0.8283
     13 O5'        -1.7337    3.1724    2.4753 O.3       1 ACP        -0.5783
     14 C5'        -0.8811    2.4285    1.6206 C.3       1 ACP         0.1980
     15 C4'        -0.1994    1.3333    2.4288 C.3       1 ACP         0.0815
     16 O4'        -1.1285    0.2356    2.5840 O.3       1 ACP        -0.4127
     17 C3'         1.0324    0.7610    1.7344 C.3       1 ACP         0.0890
     18 O3'         1.9175    0.2377    2.7247 O.3       1 ACP        -0.6221
     19 C2'         0.4468   -0.3802    0.9263 C.3       1 ACP         0.1067
     20 O2'         1.3993   -1.3703    0.5961 O.3       1 ACP        -0.6053
     21 C1'        -0.6159   -0.9100    1.8769 C.3       1 ACP         0.4223
     22 N9         -1.7127   -1.6108    1.2130 N.pl3     1 ACP        -0.6834
     23 C8         -2.5476   -1.0844    0.2632 C.ar      1 ACP         0.5614
     24 N7         -3.4391   -1.9591   -0.1536 N.2       1 ACP        -0.5751
     25 C5         -3.1701   -3.1016    0.5574 C.ar      1 ACP        -0.2117
     26 C6         -3.7593   -4.3620    0.5656 C.ar      1 ACP         0.7177
     27 N6         -4.8512   -4.6493   -0.2712 N.pl3     1 ACP        -0.9401
     28 N1         -3.2659   -5.3144    1.3932 N.ar      1 ACP        -0.8008
     29 C2         -2.2122   -4.9785    2.1759 C.ar      1 ACP         0.6565
     30 N3         -1.5595   -3.7985    2.2572 N.ar      1 ACP        -0.7061
     31 C4         -2.0986   -2.9054    1.4140 C.ar      1 ACP         0.5715
     32 HOG3       -1.8313    5.0956   -3.8234 H         1 ACP         0.4226
     33 HOB2        0.7011    7.4666    1.8322 H         1 ACP         0.4482
     34 H3B1       -1.8238    7.7321   -1.1436 H         1 ACP         0.1012
     35 H3B2       -2.8857    6.4148   -0.6544 H         1 ACP         0.1012
     36 H5'1       -1.4802    1.9928    0.8147 H         1 ACP         0.0481
     37 H5'2       -0.1369    3.1042    1.1873 H         1 ACP         0.0481
     38 H4'         0.0403    1.7078    3.4343 H         1 ACP         0.0904
     39 H3'         1.5906    1.4859    1.1353 H         1 ACP         0.0809
     40 HO3'        2.6839   -0.1150    2.2479 H         1 ACP         0.4528
     41 H2'        -0.0017    0.0018    0.0005 H         1 ACP         0.0594
     42 HO2'        0.9369   -2.0558    0.0825 H         1 ACP         0.4344
     43 H1'        -0.1998   -1.6319    2.6178 H         1 ACP         0.1127
     44 H8         -2.4576   -0.0639   -0.0831 H         1 ACP         0.1050
     45 HN61       -5.2371   -3.9234   -0.8448 H         1 ACP         0.4211
     46 HN62       -5.2909   -5.5485   -0.2160 H         1 ACP         0.4211
     47 H2         -1.8433   -5.7650    2.8259 H         1 ACP         0.0375
@<TRIPOS>BOND
     1    1    2 2
     2    1    3 1
     3    1    4 1
     4    1    8 1
     5    4   32 1
     6    5    6 2
     7    5    7 1
     8    5    8 1
     9    5   12 1
    10    7   33 1
    11    8   34 1
    12    8   35 1
    13    9   10 2
    14    9   11 1
    15    9   12 1
    16    9   13 1
    17   13   14 1
    18   14   15 1
    19   14   36 1
    20   14   37 1
    21   15   16 1
    22   15   17 1
    23   15   38 1
    24   16   21 1
    25   17   18 1
    26   17   19 1
    27   17   39 1
    28   18   40 1
    29   19   20 1
    30   19   21 1
    31   19   41 1
    32   20   42 1
    33   21   22 1
    34   21   43 1
    35   22   23 ar
    36   22   31 ar
    37   23   24 ar
    38   23   44 1
    39   24   25 ar
    40   25   26 ar
    41   25   31 ar
    42   26   27 1
    43   26   28 ar
    44   27   45 1
    45   27   46 1
    46   28   29 ar
    47   29   30 ar
    48   29   47 1
    49   30   31 ar
@<TRIPOS>SUBSTRUCTURE
     1 ACP         1 GROUP 0 A     ****
@<TRIPOS>MOLECULE
[[[5-(6-aminopurin-9-yl)-3,4-dihydroxy-tetrahydrofuran-2-yl]methoxy-oxido-phosphoryl]oxy-hydroxy-phosphoryl]methyl-hydroxy-phosphinate
   47    49     1     0     0
SMALL
USER_CHARGES

@<TRIPOS>ATOM
      1 PG          8.7448    5.0078    0.8135 P.3       1 ACP         1.3516
      2 O1G         9.7869    4.8643    1.8983 O.co2     1 ACP        -0.8379
      3 O2G         7.2790    5.2046    1.1240 O.co2     1 ACP        -0.8379
      4 O3G         9.2285    6.1402   -0.2560 O.3       1 ACP        -0.7980
      5 PB          8.6598    1.8325    0.2991 P.3       1 ACP         1.7688
      6 O1B         9.6134    1.4020    1.3732 O.2       1 ACP        -0.9167
      7 O2B         8.7177    0.9503   -1.0537 O.3       1 ACP        -0.8201
      8 C3B         8.8855    3.5262   -0.2840 C.3       1 ACP        -0.6097
      9 PA          6.1204    0.6012    1.1884 P.3       1 ACP         1.5979
     10 O1A         6.5786    0.1474    2.5573 O.co2     1 ACP        -0.8617
     11 O2A         5.9613   -0.3918    0.0578 O.co2     1 ACP        -0.8617
     12 O3A         7.0956    1.8144    0.6976 O.3       1 ACP        -0.8283
     13 O5'         4.7294    1.4426    1.3699 O.3       1 ACP        -0.5783
     14 C5'         4.0922    1.9801    0.2227 C.3       1 ACP         0.1980
     15 C4'         2.5944    2.0310    0.4653 C.3       1 ACP         0.0815
     16 O4'         1.9327    2.5740   -0.6889 O.3       1 ACP        -0.4127
     17 C3'         1.9685    0.6634    0.6767 C.3       1 ACP         0.0890
     18 O3'         2.1425    0.1975    1.9977 O.3       1 ACP        -0.6221
     19 C2'         0.5176    0.9128    0.3099 C.3       1 ACP         0.1067
     20 O2'        -0.2103    1.4454    1.4152 O.3       1 ACP        -0.6053
     21 C1'         0.6219    1.9765   -0.7844 C.3       1 ACP         0.4223
     22 N9          0.4237    1.4496   -2.1357 N.pl3     1 ACP        -0.6834
     23 C8          1.4026    0.9717   -2.9660 C.ar      1 ACP         0.5614
     24 N7          0.9183    0.5619   -4.1197 N.2       1 ACP        -0.5751
     25 C5         -0.4330    0.7845   -4.0331 C.ar      1 ACP        -0.2117
     26 C6         -1.4794    0.5615   -4.9225 C.ar      1 ACP         0.7177
     27 N6         -1.2378    0.0044   -6.1899 N.pl3     1 ACP        -0.9401
     28 N1         -2.7406    0.8885   -4.5512 N.ar      1 ACP        -0.8008
     29 C2         -2.9113    1.4216   -3.3172 C.ar      1 ACP         0.6565
     30 N3         -1.9824    1.6843   -2.3721 N.ar      1 ACP        -0.7061
     31 C4         -0.7613    1.3370   -2.8054 C.ar      1 ACP         0.5715
     32 HOG3        9.3821    7.0535    0.0673 H         1 ACP         0.4226
     33 HOB2        8.5254   -0.0102   -1.0030 H         1 ACP         0.4482
     34 H3B1        8.1793    3.6906   -1.1058 H         1 ACP         0.1012
     35 H3B2        9.8925    3.5853   -0.7105 H         1 ACP         0.1012
     36 H5'1        4.4844    2.9853    0.0382 H         1 ACP         0.0481
     37 H5'2        4.3192    1.3445   -0.6390 H         1 ACP         0.0481
     38 H4'         2.3751    2.7029    1.3156 H         1 ACP         0.0904
     39 H3'         2.4336   -0.1217   -0.0015 H         1 ACP         0.0809
     40 HO3'        1.7160   -0.6716    2.0397 H         1 ACP         0.4528
     41 H2'         0.0316    0.0155   -0.0339 H         1 ACP         0.0594
     42 HO2'       -0.1608    0.7921    2.1351 H         1 ACP         0.4344
     43 H1'        -0.1474    2.7798   -0.6651 H         1 ACP         0.1127
     44 H8          2.4442    0.9470   -2.6763 H         1 ACP         0.1050
     45 HN61       -0.2955   -0.1901   -6.4713 H         1 ACP         0.4211
     46 HN62       -1.9987   -0.1045   -6.8334 H         1 ACP         0.4211
     47 H2         -3.9335    1.6716   -3.0534 H         1 ACP         0.0375
@<TRIPOS>BOND
     1    1    2 2
     2    1    3 1
     3    1    4 1
     4    1    8 1
     5    4   32 1
     6    5    6 2
     7    5    7 1
     8    5    8 1
     9    5   12 1
    10    7   33 1
    11    8   34 1
    12    8   35 1
    13    9   10 2
    14    9   11 1
    15    9   12 1
    16    9   13 1
    17   13   14 1
    18   14   15 1
    19   14   36 1
    20   14   37 1
    21   15   16 1
    22   15   17 1
    23   15   38 1
    24   16   21 1
    25   17   18 1
    26   17   19 1
    27   17   39 1
    28   18   40 1
    29   19   20 1
    30   19   21 1
    31   19   41 1
    32   20   42 1
    33   21   22 1
    34   21   43 1
    35   22   23 ar
    36   22   31 ar
    37   23   24 ar
    38   23   44 1
    39   24   25 ar
    40   25   26 ar
    41   25   31 ar
    42   26   27 1
    43   26   28 ar
    44   27   45 1
    45   27   46 1
    46   28   29 ar
    47   29   30 ar
    48   29   47 1
    49   30   31 ar
@<TRIPOS>SUBSTRUCTURE
     1 ACP         1 GROUP 0 A     ****
@<TRIPOS>MOLECULE
[[[5-(6-aminopurin-9-yl)-3,4-dihydroxy-tetrahydrofuran-2-yl]methoxy-oxido-phosphoryl]oxy-hydroxy-phosphoryl]methyl-hydroxy-phosphinate
   47    49     1     0     0
SMALL
USER_CHARGES

@<TRIPOS>ATOM
      1 PG          1.0030    7.4437    4.3234 P.3       1 ACP         1.3516
      2 O1G         1.6553    6.3133    3.5618 O.co2     1 ACP        -0.8379
      3 O2G         0.8374    7.4145    5.8252 O.co2     1 ACP        -0.8379
      4 O3G         1.6834    8.8584    3.8812 O.3       1 ACP        -0.7980
      5 PB         -1.9507    6.4369    3.5386 P.3       1 ACP         1.7688
      6 O1B        -3.2379    6.8585    2.8955 O.2       1 ACP        -0.9167
      7 O2B        -2.0830    5.9692    5.0798 O.3       1 ACP        -0.8201
      8 C3B        -0.6714    7.7101    3.5855 C.3       1 ACP        -0.6097
      9 PA         -0.5788    5.0303    1.3262 P.3       1 ACP         1.5979
     10 O1A         0.5862    5.9826    1.1662 O.co2     1 ACP        -0.8617
     11 O2A        -1.7218    5.0335    0.3346 O.co2     1 ACP        -0.8617
     12 O3A        -1.1812    5.2058    2.8328 O.3       1 ACP        -0.8283
     13 O5'         0.0181    3.5132    1.4596 O.3       1 ACP        -0.5783
     14 C5'        -0.8811    2.4285    1.6206 C.3       1 ACP         0.1980
     15 C4'        -0.1994    1.3333    2.4288 C.3       1 ACP         0.0815
     16 O4'        -1.1285    0.2356    2.5840 O.3       1 ACP        -0.4127
     17 C3'         1.0324    0.7610    1.7344 C.3       1 ACP         0.0890
     18 O3'         1.9175    0.2377    2.7247 O.3       1 ACP        -0.6221
     19 C2'         0.4468   -0.3802    0.9263 C.3       1 ACP         0.1067
     20 O2'         1.3993   -1.3703    0.5961 O.3       1 ACP        -0.6053
     21 C1'        -0.6159   -0.9100    1.8769 C.3       1 ACP         0.4223
     22 N9         -1.7127   -1.6108    1.2130 N.pl3     1 ACP        -0.6834
     23 C8         -2.8641   -1.0399    0.7392 C.ar      1 ACP         0.5614
     24 N7         -3.6659   -1.9257    0.1858 N.2       1 ACP        -0.5751
     25 C5         -3.0053   -3.1223    0.3069 C.ar      1 ACP        -0.2117
     26 C6         -3.3321   -4.4178   -0.0813 C.ar      1 ACP         0.7177
     27 N6         -4.5476   -4.6866   -0.7335 N.pl3     1 ACP        -0.9401
     28 N1         -2.4608   -5.4225    0.1773 N.ar      1 ACP        -0.8008
     29 C2         -1.3053   -5.1020    0.8081 C.ar      1 ACP         0.6565
     30 N3         -0.8788   -3.8921    1.2315 N.ar      1 ACP        -0.7061
     31 C4         -1.7870   -2.9477    0.9438 C.ar      1 ACP         0.5715
     32 HOG3        2.6459    8.9802    4.0263 H         1 ACP         0.4226
     33 HOB2       -2.6620    5.2078    5.2971 H         1 ACP         0.4482
     34 H3B1       -1.0917    8.5834    4.0970 H         1 ACP         0.1012
     35 H3B2       -0.4793    8.0076    2.5492 H         1 ACP         0.1012
     36 H5'1       -1.7769    2.7851    2.1387 H         1 ACP         0.0481
     37 H5'2       -1.1653    2.0543    0.6320 H         1 ACP         0.0481
     38 H4'         0.0403    1.7078    3.4343 H         1 ACP         0.0904
     39 H3'         1.5906    1.4859    1.1353 H         1 ACP         0.0809
     40 HO3'        2.1521    0.9800    3.3017 H         1 ACP         0.4528
     41 H2'        -0.0017    0.0018    0.0005 H         1 ACP         0.0594
     42 HO2'        2.0953   -0.9375    0.0709 H         1 ACP         0.4344
     43 H1'        -0.1998   -1.6319    2.6178 H         1 ACP         0.1127
     44 H8         -3.0609    0.0200    0.8250 H         1 ACP         0.1050
     45 HN61       -5.2046   -3.9433   -0.8775 H         1 ACP         0.4211
     46 HN62       -4.7849   -5.6332   -0.9625 H         1 ACP         0.4211
     47 H2         -0.6318   -5.9307    0.9993 H         1 ACP         0.0375
@<TRIPOS>BOND
     1    1    2 2
     2    1    3 1
     3    1    4 1
     4    1    8 1
     5    4   32 1
     6    5    6 2
     7    5    7 1
     8    5    8 1
     9    5   12 1
    10    7   33 1
    11    8   34 1
    12    8   35 1
    13    9   10 2
    14    9   11 1
    15    9   12 1
    16    9   13 1
    17   13   14 1
    18   14   15 1
    19   14   36 1
    20   14   37 1
    21   15   16 1
    22   15   17 1
    23   15   38 1
    24   16   21 1
    25   17   18 1
    26   17   19 1
    27   17   39 1
    28   18   40 1
    29   19   20 1
    30   19   21 1
    31   19   41 1
    32   20   42 1
    33   21   22 1
    34   21   43 1
    35   22   23 ar
    36   22   31 ar
    37   23   24 ar
    38   23   44 1
    39   24   25 ar
    40   25   26 ar
    41   25   31 ar
    42   26   27 1
    43   26   28 ar
    44   27   45 1
    45   27   46 1
    46   28   29 ar
    47   29   30 ar
    48   29   47 1
    49   30   31 ar
@<TRIPOS>SUBSTRUCTURE
     1 ACP         1 GROUP 0 A     ****
@<TRIPOS>MOLECULE
[[[5-(6-aminopurin-9-yl)-3,4-dihydroxy-tetrahydrofuran-2-yl]methoxy-oxido-phosphoryl]oxy-hydroxy-phosphoryl]methyl-hydroxy-phosphinate
   47    49     1     0     0
SMALL
USER_CHARGES

@<TRIPOS>ATOM
      1 PG         -6.3184    1.3682    1.1274 P.3       1 ACP         1.3516
      2 O1G        -6.3274    0.6574   -0.2060 O.co2     1 ACP        -0.8379
      3 O2G        -7.4787    1.2876    2.0923 O.co2     1 ACP        -0.8379
      4 O3G        -4.9334    1.0226    1.9163 O.3       1 ACP        -0.7980
      5 PB         -4.8157    3.7433   -0.4395 P.3       1 ACP         1.7688
      6 O1B        -4.7059    5.2344   -0.5517 O.2       1 ACP        -0.9167
      7 O2B        -5.2738    2.9922   -1.7951 O.3       1 ACP        -0.8201
      8 C3B        -5.9969    3.1584    0.7944 C.3       1 ACP        -0.6097
      9 PA         -1.9977    2.8866   -0.7226 P.3       1 ACP         1.5979
     10 O1A        -1.3565    4.2551   -0.6463 O.co2     1 ACP        -0.8617
     11 O2A        -2.1290    2.1671   -2.0473 O.co2     1 ACP        -0.8617
     12 O3A        -3.4654    2.9679   -0.0136 O.3       1 ACP        -0.8283
     13 O5'        -1.2434    1.9102    0.3513 O.3       1 ACP        -0.5783
     14 C5'        -0.8811    2.4285    1.6206 C.3       1 ACP         0.1980
     15 C4'        -0.1994    1.3333    2.4288 C.3       1 ACP         0.0815
     16 O4'        -1.1285    0.2356    2.5840 O.3       1 ACP        -0.4127
     17 C3'         1.0324    0.7610    1.7344 C.3       1 ACP         0.0890
     18 O3'         1.9175    0.2377    2.7247 O.3       1 ACP        -0.6221
     19 C2'         0.4468   -0.3802    0.9263 C.3       1 ACP         0.1067
     20 O2'         1.3993   -1.3703    0.5961 O.3       1 ACP        -0.6053
     21 C1'        -0.6159   -0.9100    1.8769 C.3       1 ACP         0.4223
     22 N9         -1.7127   -1.6108    1.2130 N.pl3     1 ACP        -0.6834
     23 C8         -2.8641   -1.0399    0.7392 C.ar      1 ACP         0.5614
     24 N7         -3.6659   -1.9257    0.1858 N.2       1 ACP        -0.5751
     25 C5         -3.0053   -3.1223    0.3069 C.ar      1 ACP        -0.2117
     26 C6         -3.3321   -4.4178   -0.0813 C.ar      1 ACP         0.7177
     27 N6         -4.5476   -4.6866   -0.7335 N.pl3     1 ACP        -0.9401
     28 N1         -2.4608   -5.4225    0.1773 N.ar      1 ACP        -0.8008
     29 C2         -1.3053   -5.1020    0.8081 C.ar      1 ACP         0.6565
     30 N3         -0.8788   -3.8921    1.2315 N.ar      1 ACP        -0.7061
     31 C4         -1.7870   -2.9477    0.9438 C.ar      1 ACP         0.5715
     32 HOG3       -4.7381    0.0854    2.1299 H         1 ACP         0.4226
     33 HOB2       -4.7184    3.0817   -2.5987 H         1 ACP         0.4482
     34 H3B1       -6.9707    3.6014    0.5569 H         1 ACP         0.1012
     35 H3B2       -5.6830    3.5731    1.7583 H         1 ACP         0.1012
     36 H5'1       -0.2034    3.2760    1.4766 H         1 ACP         0.0481
     37 H5'2       -1.7842    2.7761    2.1321 H         1 ACP         0.0481
     38 H4'         0.0403    1.7078    3.4343 H         1 ACP         0.0904
     39 H3'         1.5906    1.4859    1.1353 H         1 ACP         0.0809
     40 HO3'        2.6839   -0.1150    2.2479 H         1 ACP         0.4528
     41 H2'        -0.0017    0.0018    0.0005 H         1 ACP         0.0594
     42 HO2'        0.9369   -2.0558    0.0825 H         1 ACP         0.4344
     43 H1'        -0.1998   -1.6319    2.6178 H         1 ACP         0.1127
     44 H8         -3.0609    0.0200    0.8250 H         1 ACP         0.1050
     45 HN61       -4.7432   -5.6184   -1.0469 H         1 ACP         0.4211
     46 HN62       -5.1624   -3.9284   -0.9616 H         1 ACP         0.4211
     47 H2         -0.6318   -5.9307    0.9993 H         1 ACP         0.0375
@<TRIPOS>BOND
     1    1    2 2
     2    1    3 1
     3    1    4 1
     4    1    8 1
     5    4   32 1
     6    5    6 2
     7    5    7 1
     8    5    8 1
     9    5   12 1
    10    7   33 1
    11    8   34 1
    12    8   35 1
    13    9   10 2
    14    9   11 1
    15    9   12 1
    16    9   13 1
    17   13   14 1
    18   14   15 1
    19   14   36 1
    20   14   37 1
    21   15   16 1
    22   15   17 1
    23   15   38 1
    24   16   21 1
    25   17   18 1
    26   17   19 1
    27   17   39 1
    28   18   40 1
    29   19   20 1
    30   19   21 1
    31   19   41 1
    32   20   42 1
    33   21   22 1
    34   21   43 1
    35   22   23 ar
    36   22   31 ar
    37   23   24 ar
    38   23   44 1
    39   24   25 ar
    40   25   26 ar
    41   25   31 ar
    42   26   27 1
    43   26   28 ar
    44   27   45 1
    45   27   46 1
    46   28   29 ar
    47   29   30 ar
    48   29   47 1
    49   30   31 ar
@<TRIPOS>SUBSTRUCTURE
     1 ACP         1 GROUP 0 A     ****
@<TRIPOS>MOLECULE
[[[5-(6-aminopurin-9-yl)-3,4-dihydroxy-tetrahydrofuran-2-yl]methoxy-oxido-phosphoryl]oxy-hydroxy-phosphoryl]methyl-hydroxy-phosphinate
   47    49     1     0     0
SMALL
USER_CHARGES

@<TRIPOS>ATOM
      1 PG          8.8580    5.9776    1.6876 P.3       1 ACP         1.3516
      2 O1G         9.0399    7.4709    1.5448 O.co2     1 ACP        -0.8379
      3 O2G         9.1196    5.0205    0.5477 O.co2     1 ACP        -0.8379
      4 O3G         9.6445    5.4610    3.0197 O.3       1 ACP        -0.7980
      5 PB          6.4464    4.0449    2.5838 P.3       1 ACP         1.7688
      6 O1B         5.0216    4.0304    3.0504 O.2       1 ACP        -0.9167
      7 O2B         7.5038    3.3815    3.6101 O.3       1 ACP        -0.8201
      8 C3B         7.1271    5.6874    2.2696 C.3       1 ACP        -0.6097
      9 PA          6.1595    3.5245   -0.3149 P.3       1 ACP         1.5979
     10 O1A         6.6440    2.3951   -1.1979 O.co2     1 ACP        -0.8617
     11 O2A         6.3928    4.9672   -0.7072 O.co2     1 ACP        -0.8617
     12 O3A         6.7392    3.2823    1.1914 O.3       1 ACP        -0.8283
     13 O5'         4.5669    3.2940   -0.0211 O.3       1 ACP        -0.5783
     14 C5'         4.0922    1.9801    0.2227 C.3       1 ACP         0.1980
     15 C4'         2.5944    2.0310    0.4653 C.3       1 ACP         0.0815
     16 O4'         1.9327    2.5740   -0.6889 O.3       1 ACP        -0.4127
     17 C3'         1.9685    0.6634    0.6767 C.3       1 ACP         0.0890
     18 O3'         2.1425    0.1975    1.9977 O.3       1 ACP        -0.6221
     19 C2'         0.5176    0.9128    0.3099 C.3       1 ACP         0.1067
     20 O2'        -0.2103    1.4454    1.4152 O.3       1 ACP        -0.6053
     21 C1'         0.6219    1.9765   -0.7844 C.3       1 ACP         0.4223
     22 N9          0.4237    1.4496   -2.1357 N.pl3     1 ACP        -0.6834
     23 C8          1.4026    0.9717   -2.9660 C.ar      1 ACP         0.5614
     24 N7          0.9183    0.5619   -4.1197 N.2       1 ACP        -0.5751
     25 C5         -0.4330    0.7845   -4.0331 C.ar      1 ACP        -0.2117
     26 C6         -1.4794    0.5615   -4.9225 C.ar      1 ACP         0.7177
     27 N6         -1.2378    0.0044   -6.1899 N.pl3     1 ACP        -0.9401
     28 N1         -2.7406    0.8885   -4.5512 N.ar      1 ACP        -0.8008
     29 C2         -2.9113    1.4216   -3.3172 C.ar      1 ACP         0.6565
     30 N3         -1.9824    1.6843   -2.3721 N.ar      1 ACP        -0.7061
     31 C4         -0.7613    1.3370   -2.8054 C.ar      1 ACP         0.5715
     32 HOG3       10.6136    5.6024    3.0751 H         1 ACP         0.4226
     33 HOB2        7.3957    2.4393    3.8605 H         1 ACP         0.4482
     34 H3B1        7.0148    6.2739    3.1885 H         1 ACP         0.1012
     35 H3B2        6.4915    6.1563    1.5108 H         1 ACP         0.1012
     36 H5'1        4.3180    1.3550   -0.6470 H         1 ACP         0.0481
     37 H5'2        4.6085    1.5739    1.0983 H         1 ACP         0.0481
     38 H4'         2.3751    2.7029    1.3156 H         1 ACP         0.0904
     39 H3'         2.4336   -0.1217   -0.0015 H         1 ACP         0.0809
     40 HO3'        3.0987    0.1465    2.1461 H         1 ACP         0.4528
     41 H2'         0.0316    0.0155   -0.0339 H         1 ACP         0.0594
     42 HO2'       -0.1608    0.7921    2.1351 H         1 ACP         0.4344
     43 H1'        -0.1474    2.7798   -0.6651 H         1 ACP         0.1127
     44 H8          2.4442    0.9470   -2.6763 H         1 ACP         0.1050
     45 HN61       -0.2955   -0.1901   -6.4713 H         1 ACP         0.4211
     46 HN62       -1.9987   -0.1045   -6.8334 H         1 ACP         0.4211
     47 H2         -3.9335    1.6716   -3.0534 H         1 ACP         0.0375
@<TRIPOS>BOND
     1    1    2 2
     2    1    3 1
     3    1    4 1
     4    1    8 1
     5    4   32 1
     6    5    6 2
     7    5    7 1
     8    5    8 1
     9    5   12 1
    10    7   33 1
    11    8   34 1
    12    8   35 1
    13    9   10 2
    14    9   11 1
    15    9   12 1
    16    9   13 1
    17   13   14 1
    18   14   15 1
    19   14   36 1
    20   14   37 1
    21   15   16 1
    22   15   17 1
    23   15   38 1
    24   16   21 1
    25   17   18 1
    26   17   19 1
    27   17   39 1
    28   18   40 1
    29   19   20 1
    30   19   21 1
    31   19   41 1
    32   20   42 1
    33   21   22 1
    34   21   43 1
    35   22   23 ar
    36   22   31 ar
    37   23   24 ar
    38   23   44 1
    39   24   25 ar
    40   25   26 ar
    41   25   31 ar
    42   26   27 1
    43   26   28 ar
    44   27   45 1
    45   27   46 1
    46   28   29 ar
    47   29   30 ar
    48   29   47 1
    49   30   31 ar
@<TRIPOS>SUBSTRUCTURE
     1 ACP         1 GROUP 0 A     ****
@<TRIPOS>MOLECULE
[[[5-(6-aminopurin-9-yl)-3,4-dihydroxy-tetrahydrofuran-2-yl]methoxy-oxido-phosphoryl]oxy-hydroxy-phosphoryl]methyl-hydroxy-phosphinate
   47    49     1     0     0
SMALL
USER_CHARGES

@<TRIPOS>ATOM
      1 PG         -1.6614    1.9803   -3.0627 P.3       1 ACP         1.3516
      2 O1G        -1.5863    0.9354   -4.1517 O.co2     1 ACP        -0.8379
      3 O2G        -0.9834    1.8004   -1.7241 O.co2     1 ACP        -0.8379
      4 O3G        -1.2624    3.4361   -3.6803 O.3       1 ACP        -0.7980
      5 PB         -4.0377    3.4941   -1.5084 P.3       1 ACP         1.7688
      6 O1B        -5.5289    3.6098   -1.4032 O.2       1 ACP        -0.9167
      7 O2B        -3.2765    4.8641   -1.9028 O.3       1 ACP        -0.8201
      8 C3B        -3.4518    2.3092   -2.7383 C.3       1 ACP        -0.6097
      9 PA         -3.1977    3.6504    1.3245 P.3       1 ACP         1.5979
     10 O1A        -4.5707    3.5541    1.9532 O.co2     1 ACP        -0.8617
     11 O2A        -2.4704    4.9755    1.2550 O.co2     1 ACP        -0.8617
     12 O3A        -3.2733    3.0059   -0.1730 O.3       1 ACP        -0.8283
     13 O5'        -2.2319    2.5394    2.0376 O.3       1 ACP        -0.5783
     14 C5'        -0.8811    2.4285    1.6206 C.3       1 ACP         0.1980
     15 C4'        -0.1994    1.3333    2.4288 C.3       1 ACP         0.0815
     16 O4'        -1.1285    0.2356    2.5840 O.3       1 ACP        -0.4127
     17 C3'         1.0324    0.7610    1.7344 C.3       1 ACP         0.0890
     18 O3'         1.9175    0.2377    2.7247 O.3       1 ACP        -0.6221
     19 C2'         0.4468   -0.3802    0.9263 C.3       1 ACP         0.1067
     20 O2'         1.3993   -1.3703    0.5961 O.3       1 ACP        -0.6053
     21 C1'        -0.6159   -0.9100    1.8769 C.3       1 ACP         0.4223
     22 N9         -1.7127   -1.6108    1.2130 N.pl3     1 ACP        -0.6834
     23 C8         -2.8641   -1.0399    0.7392 C.ar      1 ACP         0.5614
     24 N7         -3.6659   -1.9257    0.1858 N.2       1 ACP        -0.5751
     25 C5         -3.0053   -3.1223    0.3069 C.ar      1 ACP        -0.2117
     26 C6         -3.3321   -4.4178   -0.0813 C.ar      1 ACP         0.7177
     27 N6         -4.5476   -4.6866   -0.7335 N.pl3     1 ACP        -0.9401
     28 N1         -2.4608   -5.4225    0.1773 N.ar      1 ACP        -0.8008
     29 C2         -1.3053   -5.1020    0.8081 C.ar      1 ACP         0.6565
     30 N3         -0.8788   -3.8921    1.2315 N.ar      1 ACP        -0.7061
     31 C4         -1.7870   -2.9477    0.9438 C.ar      1 ACP         0.5715
     32 HOG3       -0.3715    3.5484   -4.0753 H         1 ACP         0.4226
     33 HOB2       -3.3653    5.6433   -1.3137 H         1 ACP         0.4482
     34 H3B1       -3.8872    2.5910   -3.7036 H         1 ACP         0.1012
     35 H3B2       -3.8736    1.3350   -2.4689 H         1 ACP         0.1012
     36 H5'1       -0.8588    2.1867    0.5533 H         1 ACP         0.0481
     37 H5'2       -0.3813    3.3893    1.7797 H         1 ACP         0.0481
     38 H4'         0.0403    1.7078    3.4343 H         1 ACP         0.0904
     39 H3'         1.5906    1.4859    1.1353 H         1 ACP         0.0809
     40 HO3'        2.6839   -0.1150    2.2479 H         1 ACP         0.4528
     41 H2'        -0.0017    0.0018    0.0005 H         1 ACP         0.0594
     42 HO2'        2.0953   -0.9375    0.0709 H         1 ACP         0.4344
     43 H1'        -0.1998   -1.6319    2.6178 H         1 ACP         0.1127
     44 H8         -3.0609    0.0200    0.8250 H         1 ACP         0.1050
     45 HN61       -5.2046   -3.9433   -0.8775 H         1 ACP         0.4211
     46 HN62       -4.7849   -5.6332   -0.9625 H         1 ACP         0.4211
     47 H2         -0.6318   -5.9307    0.9993 H         1 ACP         0.0375
@<TRIPOS>BOND
     1    1    2 2
     2    1    3 1
     3    1    4 1
     4    1    8 1
     5    4   32 1
     6    5    6 2
     7    5    7 1
     8    5    8 1
     9    5   12 1
    10    7   33 1
    11    8   34 1
    12    8   35 1
    13    9   10 2
    14    9   11 1
    15    9   12 1
    16    9   13 1
    17   13   14 1
    18   14   15 1
    19   14   36 1
    20   14   37 1
    21   15   16 1
    22   15   17 1
    23   15   38 1
    24   16   21 1
    25   17   18 1
    26   17   19 1
    27   17   39 1
    28   18   40 1
    29   19   20 1
    30   19   21 1
    31   19   41 1
    32   20   42 1
    33   21   22 1
    34   21   43 1
    35   22   23 ar
    36   22   31 ar
    37   23   24 ar
    38   23   44 1
    39   24   25 ar
    40   25   26 ar
    41   25   31 ar
    42   26   27 1
    43   26   28 ar
    44   27   45 1
    45   27   46 1
    46   28   29 ar
    47   29   30 ar
    48   29   47 1
    49   30   31 ar
@<TRIPOS>SUBSTRUCTURE
     1 ACP         1 GROUP 0 A     ****
@<TRIPOS>MOLECULE
[[[5-(6-aminopurin-9-yl)-3,4-dihydroxy-tetrahydrofuran-2-yl]methoxy-oxido-phosphoryl]oxy-hydroxy-phosphoryl]methyl-hydroxy-phosphinate
   47    49     1     0     0
SMALL
USER_CHARGES

@<TRIPOS>ATOM
      1 PG         -4.4208    4.3711   -0.5852 P.3       1 ACP         1.3516
      2 O1G        -3.7485    3.9061    0.6856 O.co2     1 ACP        -0.8379
      3 O2G        -5.0665    3.4086   -1.5550 O.co2     1 ACP        -0.8379
      4 O3G        -5.4679    5.5718   -0.2361 O.3       1 ACP        -0.7980
      5 PB         -1.6038    4.6990   -2.1056 P.3       1 ACP         1.7688
      6 O1B        -0.7433    5.6716   -2.8551 O.2       1 ACP        -0.9167
      7 O2B        -2.0246    3.3810   -2.9407 O.3       1 ACP        -0.8201
      8 C3B        -3.1811    5.3643   -1.5317 C.3       1 ACP        -0.6097
      9 PA         -0.4663    4.8326    0.6227 P.3       1 ACP         1.5979
     10 O1A        -1.6742    5.4170    1.3223 O.co2     1 ACP        -0.8617
     11 O2A         0.7364    5.6947    0.3068 O.co2     1 ACP        -0.8617
     12 O3A        -0.9709    4.1011   -0.7462 O.3       1 ACP        -0.8283
     13 O5'         0.0181    3.5132    1.4596 O.3       1 ACP        -0.5783
     14 C5'        -0.8811    2.4285    1.6206 C.3       1 ACP         0.1980
     15 C4'        -0.1994    1.3333    2.4288 C.3       1 ACP         0.0815
     16 O4'        -1.1285    0.2356    2.5840 O.3       1 ACP        -0.4127
     17 C3'         1.0324    0.7610    1.7344 C.3       1 ACP         0.0890
     18 O3'         1.9175    0.2377    2.7247 O.3       1 ACP        -0.6221
     19 C2'         0.4468   -0.3802    0.9263 C.3       1 ACP         0.1067
     20 O2'         1.3993   -1.3703    0.5961 O.3       1 ACP        -0.6053
     21 C1'        -0.6159   -0.9100    1.8769 C.3       1 ACP         0.4223
     22 N9         -1.7127   -1.6108    1.2130 N.pl3     1 ACP        -0.6834
     23 C8         -2.0877   -2.9101    1.4304 C.ar      1 ACP         0.5614
     24 N7         -3.1152   -3.2613    0.6857 N.2       1 ACP        -0.5751
     25 C5         -3.4186   -2.1409   -0.0462 C.ar      1 ACP        -0.2117
     26 C6         -4.3953   -1.8809   -1.0023 C.ar      1 ACP         0.7177
     27 N6         -5.3118   -2.8767   -1.3812 N.pl3     1 ACP        -0.9401
     28 N1         -4.4538   -0.6507   -1.5667 N.ar      1 ACP        -0.8008
     29 C2         -3.5442    0.2679   -1.1609 C.ar      1 ACP         0.6565
     30 N3         -2.5561    0.1361   -0.2491 N.ar      1 ACP        -0.7061
     31 C4         -2.5568   -1.1019    0.2674 C.ar      1 ACP         0.5715
     32 HOG3       -6.2047    5.3844    0.3838 H         1 ACP         0.4226
     33 HOB2       -1.3203    2.7888   -3.2802 H         1 ACP         0.4482
     34 H3B1       -3.7125    5.7575   -2.4058 H         1 ACP         0.1012
     35 H3B2       -2.9510    6.2184   -0.8859 H         1 ACP         0.1012
     36 H5'1       -1.7769    2.7851    2.1387 H         1 ACP         0.0481
     37 H5'2       -1.1653    2.0543    0.6320 H         1 ACP         0.0481
     38 H4'         0.0403    1.7078    3.4343 H         1 ACP         0.0904
     39 H3'         1.5906    1.4859    1.1353 H         1 ACP         0.0809
     40 HO3'        2.1521    0.9800    3.3017 H         1 ACP         0.4528
     41 H2'        -0.0017    0.0018    0.0005 H         1 ACP         0.0594
     42 HO2'        0.9369   -2.0558    0.0825 H         1 ACP         0.4344
     43 H1'        -0.1998   -1.6319    2.6178 H         1 ACP         0.1127
     44 H8         -1.5778   -3.5473    2.1399 H         1 ACP         0.1050
     45 HN61       -5.2294   -3.7965   -0.9914 H         1 ACP         0.4211
     46 HN62       -5.9774   -2.6837   -2.1055 H         1 ACP         0.4211
     47 H2         -3.6201    1.2414   -1.6336 H         1 ACP         0.0375
@<TRIPOS>BOND
     1    1    2 2
     2    1    3 1
     3    1    4 1
     4    1    8 1
     5    4   32 1
     6    5    6 2
     7    5    7 1
     8    5    8 1
     9    5   12 1
    10    7   33 1
    11    8   34 1
    12    8   35 1
    13    9   10 2
    14    9   11 1
    15    9   12 1
    16    9   13 1
    17   13   14 1
    18   14   15 1
    19   14   36 1
    20   14   37 1
    21   15   16 1
    22   15   17 1
    23   15   38 1
    24   16   21 1
    25   17   18 1
    26   17   19 1
    27   17   39 1
    28   18   40 1
    29   19   20 1
    30   19   21 1
    31   19   41 1
    32   20   42 1
    33   21   22 1
    34   21   43 1
    35   22   23 ar
    36   22   31 ar
    37   23   24 ar
    38   23   44 1
    39   24   25 ar
    40   25   26 ar
    41   25   31 ar
    42   26   27 1
    43   26   28 ar
    44   27   45 1
    45   27   46 1
    46   28   29 ar
    47   29   30 ar
    48   29   47 1
    49   30   31 ar
@<TRIPOS>SUBSTRUCTURE
     1 ACP         1 GROUP 0 A     ****
@<TRIPOS>MOLECULE
[[[5-(6-aminopurin-9-yl)-3,4-dihydroxy-tetrahydrofuran-2-yl]methoxy-oxido-phosphoryl]oxy-hydroxy-phosphoryl]methyl-hydroxy-phosphinate
   47    49     1     0     0
SMALL
USER_CHARGES

@<TRIPOS>ATOM
      1 PG          4.0167    2.7685   -0.9924 P.3       1 ACP         1.3516
      2 O1G         4.8120    1.6595   -1.6413 O.co2     1 ACP        -0.8379
      3 O2G         3.4094    2.6266    0.3841 O.co2     1 ACP        -0.8379
      4 O3G         4.8646    4.1596   -1.0693 O.3       1 ACP        -0.7980
      5 PB          1.4361    4.5088   -1.8083 P.3       1 ACP         1.7688
      6 O1B         0.4138    4.7191   -2.8848 O.2       1 ACP        -0.9167
      7 O2B         2.3369    5.8058   -1.4648 O.3       1 ACP        -0.8201
      8 C3B         2.6534    3.2217   -2.1564 C.3       1 ACP        -0.6097
      9 PA         -0.1841    4.7791    0.6529 P.3       1 ACP         1.5979
     10 O1A        -1.5494    4.8014    0.0006 O.co2     1 ACP        -0.8617
     11 O2A         0.4426    6.0522    1.1782 O.co2     1 ACP        -0.8617
     12 O3A         0.8608    4.0543   -0.3700 O.3       1 ACP        -0.8283
     13 O5'        -0.2060    3.6558    1.8418 O.3       1 ACP        -0.5783
     14 C5'        -0.8811    2.4285    1.6206 C.3       1 ACP         0.1980
     15 C4'        -0.1994    1.3333    2.4288 C.3       1 ACP         0.0815
     16 O4'        -1.1285    0.2356    2.5840 O.3       1 ACP        -0.4127
     17 C3'         1.0324    0.7610    1.7344 C.3       1 ACP         0.0890
     18 O3'         1.9175    0.2377    2.7247 O.3       1 ACP        -0.6221
     19 C2'         0.4468   -0.3802    0.9263 C.3       1 ACP         0.1067
     20 O2'         1.3993   -1.3703    0.5961 O.3       1 ACP        -0.6053
     21 C1'        -0.6159   -0.9100    1.8769 C.3       1 ACP         0.4223
     22 N9         -1.7127   -1.6108    1.2130 N.pl3     1 ACP        -0.6834
     23 C8         -2.5476   -1.0844    0.2632 C.ar      1 ACP         0.5614
     24 N7         -3.4391   -1.9591   -0.1536 N.2       1 ACP        -0.5751
     25 C5         -3.1701   -3.1016    0.5574 C.ar      1 ACP        -0.2117
     26 C6         -3.7593   -4.3620    0.5656 C.ar      1 ACP         0.7177
     27 N6         -4.8512   -4.6493   -0.2712 N.pl3     1 ACP        -0.9401
     28 N1         -3.2659   -5.3144    1.3932 N.ar      1 ACP        -0.8008
     29 C2         -2.2122   -4.9785    2.1759 C.ar      1 ACP         0.6565
     30 N3         -1.5595   -3.7985    2.2572 N.ar      1 ACP        -0.7061
     31 C4         -2.0986   -2.9054    1.4140 C.ar      1 ACP         0.5715
     32 HOG3        5.7446    4.1956   -0.6374 H         1 ACP         0.4226
     33 HOB2        1.8938    6.6218   -1.1489 H         1 ACP         0.4482
     34 H3B1        3.1380    3.4723   -3.1068 H         1 ACP         0.1012
     35 H3B2        2.0974    2.2916   -2.3160 H         1 ACP         0.1012
     36 H5'1       -1.9255    2.5382    1.9294 H         1 ACP         0.0481
     37 H5'2       -0.8473    2.1933    0.5521 H         1 ACP         0.0481
     38 H4'         0.0403    1.7078    3.4343 H         1 ACP         0.0904
     39 H3'         1.5906    1.4859    1.1353 H         1 ACP         0.0809
     40 HO3'        2.1521    0.9800    3.3017 H         1 ACP         0.4528
     41 H2'        -0.0017    0.0018    0.0005 H         1 ACP         0.0594
     42 HO2'        0.9369   -2.0558    0.0825 H         1 ACP         0.4344
     43 H1'        -0.1998   -1.6319    2.6178 H         1 ACP         0.1127
     44 H8         -2.4576   -0.0639   -0.0831 H         1 ACP         0.1050
     45 HN61       -5.2371   -3.9234   -0.8448 H         1 ACP         0.4211
     46 HN62       -5.2909   -5.5485   -0.2160 H         1 ACP         0.4211
     47 H2         -1.8433   -5.7650    2.8259 H         1 ACP         0.0375
@<TRIPOS>BOND
     1    1    2 2
     2    1    3 1
     3    1    4 1
     4    1    8 1
     5    4   32 1
     6    5    6 2
     7    5    7 1
     8    5    8 1
     9    5   12 1
    10    7   33 1
    11    8   34 1
    12    8   35 1
    13    9   10 2
    14    9   11 1
    15    9   12 1
    16    9   13 1
    17   13   14 1
    18   14   15 1
    19   14   36 1
    20   14   37 1
    21   15   16 1
    22   15   17 1
    23   15   38 1
    24   16   21 1
    25   17   18 1
    26   17   19 1
    27   17   39 1
    28   18   40 1
    29   19   20 1
    30   19   21 1
    31   19   41 1
    32   20   42 1
    33   21   22 1
    34   21   43 1
    35   22   23 ar
    36   22   31 ar
    37   23   24 ar
    38   23   44 1
    39   24   25 ar
    40   25   26 ar
    41   25   31 ar
    42   26   27 1
    43   26   28 ar
    44   27   45 1
    45   27   46 1
    46   28   29 ar
    47   29   30 ar
    48   29   47 1
    49   30   31 ar
@<TRIPOS>SUBSTRUCTURE
     1 ACP         1 GROUP 0 A     ****
@<TRIPOS>MOLECULE
[[[5-(6-aminopurin-9-yl)-3,4-dihydroxy-tetrahydrofuran-2-yl]methoxy-oxido-phosphoryl]oxy-hydroxy-phosphoryl]methyl-hydroxy-phosphinate
   47    49     1     0     0
SMALL
USER_CHARGES

@<TRIPOS>ATOM
      1 PG          3.8230    2.6016   -1.3801 P.3       1 ACP         1.3516
      2 O1G         3.0753    1.5760   -0.5601 O.co2     1 ACP        -0.8379
      3 O2G         5.2395    3.0165   -1.0559 O.co2     1 ACP        -0.8379
      4 O3G         3.7217    2.2103   -2.9602 O.3       1 ACP        -0.7980
      5 PB          1.1170    4.1900   -2.0936 P.3       1 ACP         1.7688
      6 O1B         1.0081    3.8159   -3.5414 O.2       1 ACP        -0.9167
      7 O2B         0.6086    5.6822   -1.7378 O.3       1 ACP        -0.8201
      8 C3B         2.7903    4.1350   -1.4177 C.3       1 ACP        -0.6097
      9 PA         -1.2907    2.9171   -0.9369 P.3       1 ACP         1.5979
     10 O1A        -1.7019    2.1112   -2.1499 O.co2     1 ACP        -0.8617
     11 O2A        -2.0345    4.1794   -0.5589 O.co2     1 ACP        -0.8617
     12 O3A         0.3012    3.2547   -1.0613 O.3       1 ACP        -0.8283
     13 O5'        -1.2434    1.9102    0.3513 O.3       1 ACP        -0.5783
     14 C5'        -0.8811    2.4285    1.6206 C.3       1 ACP         0.1980
     15 C4'        -0.1994    1.3333    2.4288 C.3       1 ACP         0.0815
     16 O4'        -1.1285    0.2356    2.5840 O.3       1 ACP        -0.4127
     17 C3'         1.0324    0.7610    1.7344 C.3       1 ACP         0.0890
     18 O3'         1.9175    0.2377    2.7247 O.3       1 ACP        -0.6221
     19 C2'         0.4468   -0.3802    0.9263 C.3       1 ACP         0.1067
     20 O2'         1.3993   -1.3703    0.5961 O.3       1 ACP        -0.6053
     21 C1'        -0.6159   -0.9100    1.8769 C.3       1 ACP         0.4223
     22 N9         -1.7127   -1.6108    1.2130 N.pl3     1 ACP        -0.6834
     23 C8         -2.8641   -1.0399    0.7392 C.ar      1 ACP         0.5614
     24 N7         -3.6659   -1.9257    0.1858 N.2       1 ACP        -0.5751
     25 C5         -3.0053   -3.1223    0.3069 C.ar      1 ACP        -0.2117
     26 C6         -3.3321   -4.4178   -0.0813 C.ar      1 ACP         0.7177
     27 N6         -4.5476   -4.6866   -0.7335 N.pl3     1 ACP        -0.9401
     28 N1         -2.4608   -5.4225    0.1773 N.ar      1 ACP        -0.8008
     29 C2         -1.3053   -5.1020    0.8081 C.ar      1 ACP         0.6565
     30 N3         -0.8788   -3.8921    1.2315 N.ar      1 ACP        -0.7061
     31 C4         -1.7870   -2.9477    0.9438 C.ar      1 ACP         0.5715
     32 HOG3        4.0807    1.3452   -3.2518 H         1 ACP         0.4226
     33 HOB2       -0.3229    5.9243   -1.9268 H         1 ACP         0.4482
     34 H3B1        2.7415    4.4920   -0.3827 H         1 ACP         0.1012
     35 H3B2        3.3855    4.8626   -1.9797 H         1 ACP         0.1012
     36 H5'1       -0.2034    3.2760    1.4766 H         1 ACP         0.0481
     37 H5'2       -1.7842    2.7761    2.1321 H         1 ACP         0.0481
     38 H4'         0.0403    1.7078    3.4343 H         1 ACP         0.0904
     39 H3'         1.5906    1.4859    1.1353 H         1 ACP         0.0809
     40 HO3'        2.6839   -0.1150    2.2479 H         1 ACP         0.4528
     41 H2'        -0.0017    0.0018    0.0005 H         1 ACP         0.0594
     42 HO2'        2.0953   -0.9375    0.0709 H         1 ACP         0.4344
     43 H1'        -0.1998   -1.6319    2.6178 H         1 ACP         0.1127
     44 H8         -3.0609    0.0200    0.8250 H         1 ACP         0.1050
     45 HN61       -5.2046   -3.9433   -0.8775 H         1 ACP         0.4211
     46 HN62       -4.7849   -5.6332   -0.9625 H         1 ACP         0.4211
     47 H2         -0.6318   -5.9307    0.9993 H         1 ACP         0.0375
@<TRIPOS>BOND
     1    1    2 2
     2    1    3 1
     3    1    4 1
     4    1    8 1
     5    4   32 1
     6    5    6 2
     7    5    7 1
     8    5    8 1
     9    5   12 1
    10    7   33 1
    11    8   34 1
    12    8   35 1
    13    9   10 2
    14    9   11 1
    15    9   12 1
    16    9   13 1
    17   13   14 1
    18   14   15 1
    19   14   36 1
    20   14   37 1
    21   15   16 1
    22   15   17 1
    23   15   38 1
    24   16   21 1
    25   17   18 1
    26   17   19 1
    27   17   39 1
    28   18   40 1
    29   19   20 1
    30   19   21 1
    31   19   41 1
    32   20   42 1
    33   21   22 1
    34   21   43 1
    35   22   23 ar
    36   22   31 ar
    37   23   24 ar
    38   23   44 1
    39   24   25 ar
    40   25   26 ar
    41   25   31 ar
    42   26   27 1
    43   26   28 ar
    44   27   45 1
    45   27   46 1
    46   28   29 ar
    47   29   30 ar
    48   29   47 1
    49   30   31 ar
@<TRIPOS>SUBSTRUCTURE
     1 ACP         1 GROUP 0 A     ****
@<TRIPOS>MOLECULE
[[[5-(6-aminopurin-9-yl)-3,4-dihydroxy-tetrahydrofuran-2-yl]methoxy-oxido-phosphoryl]oxy-hydroxy-phosphoryl]methyl-hydroxy-phosphinate
   47    49     1     0     0
SMALL
USER_CHARGES

@<TRIPOS>ATOM
      1 PG         -0.0062    7.8055   -1.7201 P.3       1 ACP         1.3516
      2 O1G        -0.5932    8.0055   -0.3421 O.co2     1 ACP        -0.8379
      3 O2G        -0.7918    8.0868   -2.9800 O.co2     1 ACP        -0.8379
      4 O3G         1.4408    8.5529   -1.8062 O.3       1 ACP        -0.7980
      5 PB         -0.4906    4.6265   -1.6037 P.3       1 ACP         1.7688
      6 O1B         0.1927    3.2969   -1.7195 O.2       1 ACP        -0.9167
      7 O2B        -1.6744    4.8771   -2.6750 O.3       1 ACP        -0.8201
      8 C3B         0.5894    6.0577   -1.8161 C.3       1 ACP        -0.6097
      9 PA         -0.5788    5.0303    1.3262 P.3       1 ACP         1.5979
     10 O1A        -1.7294    5.1711    2.2989 O.co2     1 ACP        -0.8617
     11 O2A         0.5650    6.0209    1.3331 O.co2     1 ACP        -0.8617
     12 O3A        -1.1922    4.9364   -0.1832 O.3       1 ACP        -0.8283
     13 O5'         0.0181    3.5132    1.4596 O.3       1 ACP        -0.5783
     14 C5'        -0.8811    2.4285    1.6206 C.3       1 ACP         0.1980
     15 C4'        -0.1994    1.3333    2.4288 C.3       1 ACP         0.0815
     16 O4'        -1.1285    0.2356    2.5840 O.3       1 ACP        -0.4127
     17 C3'         1.0324    0.7610    1.7344 C.3       1 ACP         0.0890
     18 O3'         1.9175    0.2377    2.7247 O.3       1 ACP        -0.6221
     19 C2'         0.4468   -0.3802    0.9263 C.3       1 ACP         0.1067
     20 O2'         1.3993   -1.3703    0.5961 O.3       1 ACP        -0.6053
     21 C1'        -0.6159   -0.9100    1.8769 C.3       1 ACP         0.4223
     22 N9         -1.7127   -1.6108    1.2130 N.pl3     1 ACP        -0.6834
     23 C8         -1.7712   -2.9546    0.9544 C.ar      1 ACP         0.5614
     24 N7         -2.8883   -3.2948    0.3462 N.2       1 ACP        -0.5751
     25 C5         -3.5834   -2.1202    0.2043 C.ar      1 ACP        -0.2117
     26 C6         -4.8225   -1.8251   -0.3554 C.ar      1 ACP         0.7177
     27 N6         -5.6154   -2.8395   -0.9189 N.pl3     1 ACP        -0.9401
     28 N1         -5.2589   -0.5425   -0.3507 N.ar      1 ACP        -0.8008
     29 C2         -4.4510    0.3913    0.2069 C.ar      1 ACP         0.6565
     30 N3         -3.2368    0.2296    0.7767 N.ar      1 ACP        -0.7061
     31 C4         -2.8684   -1.0596    0.7376 C.ar      1 ACP         0.5715
     32 HOG3        1.4767    9.5216   -1.6560 H         1 ACP         0.4226
     33 HOB2       -2.4436    4.2686   -2.6840 H         1 ACP         0.4482
     34 H3B1        1.0822    5.9593   -2.7900 H         1 ACP         0.1012
     35 H3B2        1.3713    5.9834   -1.0526 H         1 ACP         0.1012
     36 H5'1       -1.7769    2.7851    2.1387 H         1 ACP         0.0481
     37 H5'2       -1.1653    2.0543    0.6320 H         1 ACP         0.0481
     38 H4'         0.0403    1.7078    3.4343 H         1 ACP         0.0904
     39 H3'         1.5906    1.4859    1.1353 H         1 ACP         0.0809
     40 HO3'        2.6839   -0.1150    2.2479 H         1 ACP         0.4528
     41 H2'        -0.0017    0.0018    0.0005 H         1 ACP         0.0594
     42 HO2'        0.9369   -2.0558    0.0825 H         1 ACP         0.4344
     43 H1'        -0.1998   -1.6319    2.6178 H         1 ACP         0.1127
     44 H8         -0.9745   -3.6312    1.2318 H         1 ACP         0.1050
     45 HN61       -5.2619   -3.7766   -0.9586 H         1 ACP         0.4211
     46 HN62       -6.4834   -2.5990   -1.3590 H         1 ACP         0.4211
     47 H2         -4.8317    1.4071    0.1930 H         1 ACP         0.0375
@<TRIPOS>BOND
     1    1    2 2
     2    1    3 1
     3    1    4 1
     4    1    8 1
     5    4   32 1
     6    5    6 2
     7    5    7 1
     8    5    8 1
     9    5   12 1
    10    7   33 1
    11    8   34 1
    12    8   35 1
    13    9   10 2
    14    9   11 1
    15    9   12 1
    16    9   13 1
    17   13   14 1
    18   14   15 1
    19   14   36 1
    20   14   37 1
    21   15   16 1
    22   15   17 1
    23   15   38 1
    24   16   21 1
    25   17   18 1
    26   17   19 1
    27   17   39 1
    28   18   40 1
    29   19   20 1
    30   19   21 1
    31   19   41 1
    32   20   42 1
    33   21   22 1
    34   21   43 1
    35   22   23 ar
    36   22   31 ar
    37   23   24 ar
    38   23   44 1
    39   24   25 ar
    40   25   26 ar
    41   25   31 ar
    42   26   27 1
    43   26   28 ar
    44   27   45 1
    45   27   46 1
    46   28   29 ar
    47   29   30 ar
    48   29   47 1
    49   30   31 ar
@<TRIPOS>SUBSTRUCTURE
     1 ACP         1 GROUP 0 A     ****
@<TRIPOS>MOLECULE
[[[5-(6-aminopurin-9-yl)-3,4-dihydroxy-tetrahydrofuran-2-yl]methoxy-oxido-phosphoryl]oxy-hydroxy-phosphoryl]methyl-hydroxy-phosphinate
   47    49     1     0     0
SMALL
USER_CHARGES

@<TRIPOS>ATOM
      1 PG          2.9456    5.3484    0.8898 P.3       1 ACP         1.3516
      2 O1G         4.3620    5.3708    1.4155 O.co2     1 ACP        -0.8379
      3 O2G         2.6098    5.7078   -0.5391 O.co2     1 ACP        -0.8379
      4 O3G         2.2502    3.9221    1.2670 O.3       1 ACP        -0.7980
      5 PB          0.1667    6.7235    1.7506 P.3       1 ACP         1.7688
      6 O1B        -0.2022    7.3363    0.4329 O.2       1 ACP        -0.9167
      7 O2B        -0.2595    7.5910    3.0459 O.3       1 ACP        -0.8201
      8 C3B         1.9335    6.4381    1.9886 C.3       1 ACP        -0.6097
      9 PA         -2.0038    4.7531    2.1525 P.3       1 ACP         1.5979
     10 O1A        -2.6311    4.8530    0.7790 O.co2     1 ACP        -0.8617
     11 O2A        -2.6593    5.4042    3.3509 O.co2     1 ACP        -0.8617
     12 O3A        -0.4577    5.2649    2.0483 O.3       1 ACP        -0.8283
     13 O5'        -1.7337    3.1724    2.4753 O.3       1 ACP        -0.5783
     14 C5'        -0.8811    2.4285    1.6206 C.3       1 ACP         0.1980
     15 C4'        -0.1994    1.3333    2.4288 C.3       1 ACP         0.0815
     16 O4'        -1.1285    0.2356    2.5840 O.3       1 ACP        -0.4127
     17 C3'         1.0324    0.7610    1.7344 C.3       1 ACP         0.0890
     18 O3'         1.9175    0.2377    2.7247 O.3       1 ACP        -0.6221
     19 C2'         0.4468   -0.3802    0.9263 C.3       1 ACP         0.1067
     20 O2'         1.3993   -1.3703    0.5961 O.3       1 ACP        -0.6053
     21 C1'        -0.6159   -0.9100    1.8769 C.3       1 ACP         0.4223
     22 N9         -1.7127   -1.6108    1.2130 N.pl3     1 ACP        -0.6834
     23 C8         -2.8641   -1.0399    0.7392 C.ar      1 ACP         0.5614
     24 N7         -3.6659   -1.9257    0.1858 N.2       1 ACP        -0.5751
     25 C5         -3.0053   -3.1223    0.3069 C.ar      1 ACP        -0.2117
     26 C6         -3.3321   -4.4178   -0.0813 C.ar      1 ACP         0.7177
     27 N6         -4.5476   -4.6866   -0.7335 N.pl3     1 ACP        -0.9401
     28 N1         -2.4608   -5.4225    0.1773 N.ar      1 ACP        -0.8008
     29 C2         -1.3053   -5.1020    0.8081 C.ar      1 ACP         0.6565
     30 N3         -0.8788   -3.8921    1.2315 N.ar      1 ACP        -0.7061
     31 C4         -1.7870   -2.9477    0.9438 C.ar      1 ACP         0.5715
     32 HOG3        2.6581    3.0980    0.9254 H         1 ACP         0.4226
     33 HOB2       -1.2081    7.7945    3.1901 H         1 ACP         0.4482
     34 H3B1        2.0732    6.0552    3.0058 H         1 ACP         0.1012
     35 H3B2        2.4235    7.4167    1.9447 H         1 ACP         0.1012
     36 H5'1       -1.4802    1.9928    0.8147 H         1 ACP         0.0481
     37 H5'2       -0.1369    3.1042    1.1873 H         1 ACP         0.0481
     38 H4'         0.0403    1.7078    3.4343 H         1 ACP         0.0904
     39 H3'         1.5906    1.4859    1.1353 H         1 ACP         0.0809
     40 HO3'        2.1521    0.9800    3.3017 H         1 ACP         0.4528
     41 H2'        -0.0017    0.0018    0.0005 H         1 ACP         0.0594
     42 HO2'        0.9369   -2.0558    0.0825 H         1 ACP         0.4344
     43 H1'        -0.1998   -1.6319    2.6178 H         1 ACP         0.1127
     44 H8         -3.0609    0.0200    0.8250 H         1 ACP         0.1050
     45 HN61       -5.2046   -3.9433   -0.8775 H         1 ACP         0.4211
     46 HN62       -4.7849   -5.6332   -0.9625 H         1 ACP         0.4211
     47 H2         -0.6318   -5.9307    0.9993 H         1 ACP         0.0375
@<TRIPOS>BOND
     1    1    2 2
     2    1    3 1
     3    1    4 1
     4    1    8 1
     5    4   32 1
     6    5    6 2
     7    5    7 1
     8    5    8 1
     9    5   12 1
    10    7   33 1
    11    8   34 1
    12    8   35 1
    13    9   10 2
    14    9   11 1
    15    9   12 1
    16    9   13 1
    17   13   14 1
    18   14   15 1
    19   14   36 1
    20   14   37 1
    21   15   16 1
    22   15   17 1
    23   15   38 1
    24   16   21 1
    25   17   18 1
    26   17   19 1
    27   17   39 1
    28   18   40 1
    29   19   20 1
    30   19   21 1
    31   19   41 1
    32   20   42 1
    33   21   22 1
    34   21   43 1
    35   22   23 ar
    36   22   31 ar
    37   23   24 ar
    38   23   44 1
    39   24   25 ar
    40   25   26 ar
    41   25   31 ar
    42   26   27 1
    43   26   28 ar
    44   27   45 1
    45   27   46 1
    46   28   29 ar
    47   29   30 ar
    48   29   47 1
    49   30   31 ar
@<TRIPOS>SUBSTRUCTURE
     1 ACP         1 GROUP 0 A     ****
@<TRIPOS>MOLECULE
[[[5-(6-aminopurin-9-yl)-3,4-dihydroxy-tetrahydrofuran-2-yl]methoxy-oxido-phosphoryl]oxy-hydroxy-phosphoryl]methyl-hydroxy-phosphinate
   47    49     1     0     0
SMALL
USER_CHARGES

@<TRIPOS>ATOM
      1 PG          0.7780    1.1039   -8.2241 P.3       1 ACP         1.3516
      2 O1G         2.2130    0.9717   -8.6788 O.co2     1 ACP        -0.8379
      3 O2G        -0.3399    1.4618   -9.1759 O.co2     1 ACP        -0.8379
      4 O3G         0.3571   -0.2185   -7.3674 O.3       1 ACP        -0.7980
      5 PB         -0.7587    2.8233   -5.9799 P.3       1 ACP         1.7688
      6 O1B        -1.8144    3.4396   -6.8482 O.2       1 ACP        -0.9167
      7 O2B        -0.2251    3.7703   -4.7840 O.3       1 ACP        -0.8201
      8 C3B         0.7489    2.3360   -6.8456 C.3       1 ACP        -0.6097
      9 PA         -2.3606    1.1373   -4.1506 P.3       1 ACP         1.5979
     10 O1A        -2.1701   -0.2747   -3.6407 O.co2     1 ACP        -0.8617
     11 O2A        -3.6866    1.5770   -4.7320 O.co2     1 ACP        -0.8617
     12 O3A        -1.1756    1.4581   -5.2260 O.3       1 ACP        -0.8283
     13 O5'        -1.9207    2.1716   -2.9622 O.3       1 ACP        -0.5783
     14 C5'        -0.7794    1.8744   -2.1748 C.3       1 ACP         0.1980
     15 C4'        -0.9699    2.4597   -0.7819 C.3       1 ACP         0.0815
     16 O4'        -2.1475    1.8640   -0.2014 O.3       1 ACP        -0.4127
     17 C3'         0.1697    2.1347    0.1695 C.3       1 ACP         0.0890
     18 O3'         0.1809    3.0982    1.2223 O.3       1 ACP        -0.6221
     19 C2'        -0.2543    0.7880    0.7187 C.3       1 ACP         0.1067
     20 O2'         0.3606    0.4944    1.9582 O.3       1 ACP        -0.6053
     21 C1'        -1.7682    0.9516    0.8548 C.3       1 ACP         0.4223
     22 N9         -2.5926   -0.2553    0.7436 N.pl3     1 ACP        -0.6834
     23 C8         -3.5599   -0.4866   -0.1983 C.ar      1 ACP         0.5614
     24 N7         -4.1294   -1.6639   -0.0461 N.2       1 ACP        -0.5751
     25 C5         -3.5041   -2.2191    1.0420 C.ar      1 ACP        -0.2117
     26 C6         -3.6605   -3.4390    1.6925 C.ar      1 ACP         0.7177
     27 N6         -4.6108   -4.3735    1.2468 N.pl3     1 ACP        -0.9401
     28 N1         -2.8820   -3.7179    2.7657 N.ar      1 ACP        -0.8008
     29 C2         -1.9837   -2.7784    3.1481 C.ar      1 ACP         0.6565
     30 N3         -1.7408   -1.5668    2.6022 N.ar      1 ACP        -0.7061
     31 C4         -2.5438   -1.3578    1.5483 C.ar      1 ACP         0.5715
     32 HOG3        0.4018   -1.0944   -7.8069 H         1 ACP         0.4226
     33 HOB2       -0.8626    4.0892   -4.1102 H         1 ACP         0.4482
     34 H3B1        1.4573    1.9670   -6.0953 H         1 ACP         0.1012
     35 H3B2        1.1806    3.2476   -7.2724 H         1 ACP         0.1012
     36 H5'1       -0.6601    0.7877   -2.1202 H         1 ACP         0.0481
     37 H5'2        0.1042    2.3072   -2.6544 H         1 ACP         0.0481
     38 H4'        -1.1469    3.5409   -0.8522 H         1 ACP         0.0904
     39 H3'         1.1601    2.1310   -0.2934 H         1 ACP         0.0809
     40 HO3'        0.9173    2.8584    1.8048 H         1 ACP         0.4528
     41 H2'        -0.0024   -0.0091    0.0062 H         1 ACP         0.0594
     42 HO2'        0.0384   -0.3797    2.2403 H         1 ACP         0.4344
     43 H1'        -2.0584    1.4255    1.8301 H         1 ACP         0.1127
     44 H8         -3.8030    0.2355   -0.9657 H         1 ACP         0.1050
     45 HN61       -5.2130   -4.1372    0.4810 H         1 ACP         0.4211
     46 HN62       -4.7404   -5.2263    1.7576 H         1 ACP         0.4211
     47 H2         -1.3778   -3.0348    4.0107 H         1 ACP         0.0375
@<TRIPOS>BOND
     1    1    2 2
     2    1    3 1
     3    1    4 1
     4    1    8 1
     5    4   32 1
     6    5    6 2
     7    5    7 1
     8    5    8 1
     9    5   12 1
    10    7   33 1
    11    8   34 1
    12    8   35 1
    13    9   10 2
    14    9   11 1
    15    9   12 1
    16    9   13 1
    17   13   14 1
    18   14   15 1
    19   14   36 1
    20   14   37 1
    21   15   16 1
    22   15   17 1
    23   15   38 1
    24   16   21 1
    25   17   18 1
    26   17   19 1
    27   17   39 1
    28   18   40 1
    29   19   20 1
    30   19   21 1
    31   19   41 1
    32   20   42 1
    33   21   22 1
    34   21   43 1
    35   22   23 ar
    36   22   31 ar
    37   23   24 ar
    38   23   44 1
    39   24   25 ar
    40   25   26 ar
    41   25   31 ar
    42   26   27 1
    43   26   28 ar
    44   27   45 1
    45   27   46 1
    46   28   29 ar
    47   29   30 ar
    48   29   47 1
    49   30   31 ar
@<TRIPOS>SUBSTRUCTURE
     1 ACP         1 GROUP 0 A     ****
@<TRIPOS>MOLECULE
[[[5-(6-aminopurin-9-yl)-3,4-dihydroxy-tetrahydrofuran-2-yl]methoxy-oxido-phosphoryl]oxy-hydroxy-phosphoryl]methyl-hydroxy-phosphinate
   47    49     1     0     0
SMALL
USER_CHARGES

@<TRIPOS>ATOM
      1 PG          8.8580    5.9776    1.6876 P.3       1 ACP         1.3516
      2 O1G         9.0399    7.4709    1.5448 O.co2     1 ACP        -0.8379
      3 O2G         9.1196    5.0205    0.5477 O.co2     1 ACP        -0.8379
      4 O3G         9.6445    5.4610    3.0197 O.3       1 ACP        -0.7980
      5 PB          6.4464    4.0449    2.5838 P.3       1 ACP         1.7688
      6 O1B         5.0216    4.0304    3.0504 O.2       1 ACP        -0.9167
      7 O2B         7.5038    3.3815    3.6101 O.3       1 ACP        -0.8201
      8 C3B         7.1271    5.6874    2.2696 C.3       1 ACP        -0.6097
      9 PA          6.1595    3.5245   -0.3149 P.3       1 ACP         1.5979
     10 O1A         6.6440    2.3951   -1.1979 O.co2     1 ACP        -0.8617
     11 O2A         6.3928    4.9672   -0.7072 O.co2     1 ACP        -0.8617
     12 O3A         6.7392    3.2823    1.1914 O.3       1 ACP        -0.8283
     13 O5'         4.5669    3.2940   -0.0211 O.3       1 ACP        -0.5783
     14 C5'         4.0922    1.9801    0.2227 C.3       1 ACP         0.1980
     15 C4'         2.5944    2.0310    0.4653 C.3       1 ACP         0.0815
     16 O4'         1.9327    2.5740   -0.6889 O.3       1 ACP        -0.4127
     17 C3'         1.9685    0.6634    0.6767 C.3       1 ACP         0.0890
     18 O3'         2.1425    0.1975    1.9977 O.3       1 ACP        -0.6221
     19 C2'         0.5176    0.9128    0.3099 C.3       1 ACP         0.1067
     20 O2'        -0.2103    1.4454    1.4152 O.3       1 ACP        -0.6053
     21 C1'         0.6219    1.9765   -0.7844 C.3       1 ACP         0.4223
     22 N9          0.4237    1.4496   -2.1357 N.pl3     1 ACP        -0.6834
     23 C8         -0.7736    1.3475   -2.7932 C.ar      1 ACP         0.5614
     24 N7         -0.6356    0.8373   -3.9991 N.2       1 ACP        -0.5751
     25 C5          0.7095    0.5981   -4.1281 C.ar      1 ACP        -0.2117
     26 C6          1.4733    0.0704   -5.1643 C.ar      1 ACP         0.7177
     27 N6          0.8693   -0.3355   -6.3666 N.pl3     1 ACP        -0.9401
     28 N1          2.8130   -0.0482   -5.0009 N.ar      1 ACP        -0.8008
     29 C2          3.3380    0.3602   -3.8204 C.ar      1 ACP         0.6565
     30 N3          2.7052    0.8841   -2.7480 N.ar      1 ACP        -0.7061
     31 C4          1.3867    0.9726   -2.9785 C.ar      1 ACP         0.5715
     32 HOG3       10.6136    5.6024    3.0751 H         1 ACP         0.4226
     33 HOB2        7.3957    2.4393    3.8605 H         1 ACP         0.4482
     34 H3B1        7.0148    6.2739    3.1885 H         1 ACP         0.1012
     35 H3B2        6.4915    6.1563    1.5108 H         1 ACP         0.1012
     36 H5'1        4.3180    1.3550   -0.6470 H         1 ACP         0.0481
     37 H5'2        4.6085    1.5739    1.0983 H         1 ACP         0.0481
     38 H4'         2.3751    2.7029    1.3156 H         1 ACP         0.0904
     39 H3'         2.4336   -0.1217   -0.0015 H         1 ACP         0.0809
     40 HO3'        1.7160   -0.6716    2.0397 H         1 ACP         0.4528
     41 H2'         0.0316    0.0155   -0.0339 H         1 ACP         0.0594
     42 HO2'       -0.1608    0.7921    2.1351 H         1 ACP         0.4344
     43 H1'        -0.1474    2.7798   -0.6651 H         1 ACP         0.1127
     44 H8         -1.7070    1.6599   -2.3451 H         1 ACP         0.1050
     45 HN61       -0.1277   -0.2866   -6.4583 H         1 ACP         0.4211
     46 HN62        1.4308   -0.7566   -7.0823 H         1 ACP         0.4211
     47 H2          4.4130    0.2505   -3.7241 H         1 ACP         0.0375
@<TRIPOS>BOND
     1    1    2 2
     2    1    3 1
     3    1    4 1
     4    1    8 1
     5    4   32 1
     6    5    6 2
     7    5    7 1
     8    5    8 1
     9    5   12 1
    10    7   33 1
    11    8   34 1
    12    8   35 1
    13    9   10 2
    14    9   11 1
    15    9   12 1
    16    9   13 1
    17   13   14 1
    18   14   15 1
    19   14   36 1
    20   14   37 1
    21   15   16 1
    22   15   17 1
    23   15   38 1
    24   16   21 1
    25   17   18 1
    26   17   19 1
    27   17   39 1
    28   18   40 1
    29   19   20 1
    30   19   21 1
    31   19   41 1
    32   20   42 1
    33   21   22 1
    34   21   43 1
    35   22   23 ar
    36   22   31 ar
    37   23   24 ar
    38   23   44 1
    39   24   25 ar
    40   25   26 ar
    41   25   31 ar
    42   26   27 1
    43   26   28 ar
    44   27   45 1
    45   27   46 1
    46   28   29 ar
    47   29   30 ar
    48   29   47 1
    49   30   31 ar
@<TRIPOS>SUBSTRUCTURE
     1 ACP         1 GROUP 0 A     ****
@<TRIPOS>MOLECULE
[[[5-(6-aminopurin-9-yl)-3,4-dihydroxy-tetrahydrofuran-2-yl]methoxy-oxido-phosphoryl]oxy-hydroxy-phosphoryl]methyl-hydroxy-phosphinate
   47    49     1     0     0
SMALL
USER_CHARGES

@<TRIPOS>ATOM
      1 PG          1.0030    7.4437    4.3234 P.3       1 ACP         1.3516
      2 O1G         1.6553    6.3133    3.5618 O.co2     1 ACP        -0.8379
      3 O2G         0.8374    7.4145    5.8252 O.co2     1 ACP        -0.8379
      4 O3G         1.6834    8.8584    3.8812 O.3       1 ACP        -0.7980
      5 PB         -1.9507    6.4369    3.5386 P.3       1 ACP         1.7688
      6 O1B        -3.2379    6.8585    2.8955 O.2       1 ACP        -0.9167
      7 O2B        -2.0830    5.9692    5.0798 O.3       1 ACP        -0.8201
      8 C3B        -0.6714    7.7101    3.5855 C.3       1 ACP        -0.6097
      9 PA         -0.5788    5.0303    1.3262 P.3       1 ACP         1.5979
     10 O1A         0.5862    5.9826    1.1662 O.co2     1 ACP        -0.8617
     11 O2A        -1.7218    5.0335    0.3346 O.co2     1 ACP        -0.8617
     12 O3A        -1.1812    5.2058    2.8328 O.3       1 ACP        -0.8283
     13 O5'         0.0181    3.5132    1.4596 O.3       1 ACP        -0.5783
     14 C5'        -0.8811    2.4285    1.6206 C.3       1 ACP         0.1980
     15 C4'        -0.1994    1.3333    2.4288 C.3       1 ACP         0.0815
     16 O4'        -1.1285    0.2356    2.5840 O.3       1 ACP        -0.4127
     17 C3'         1.0324    0.7610    1.7344 C.3       1 ACP         0.0890
     18 O3'         1.9175    0.2377    2.7247 O.3       1 ACP        -0.6221
     19 C2'         0.4468   -0.3802    0.9263 C.3       1 ACP         0.1067
     20 O2'         1.3993   -1.3703    0.5961 O.3       1 ACP        -0.6053
     21 C1'        -0.6159   -0.9100    1.8769 C.3       1 ACP         0.4223
     22 N9         -1.7127   -1.6108    1.2130 N.pl3     1 ACP        -0.6834
     23 C8         -1.7712   -2.9546    0.9544 C.ar      1 ACP         0.5614
     24 N7         -2.8883   -3.2948    0.3462 N.2       1 ACP        -0.5751
     25 C5         -3.5834   -2.1202    0.2043 C.ar      1 ACP        -0.2117
     26 C6         -4.8225   -1.8251   -0.3554 C.ar      1 ACP         0.7177
     27 N6         -5.6154   -2.8395   -0.9189 N.pl3     1 ACP        -0.9401
     28 N1         -5.2589   -0.5425   -0.3507 N.ar      1 ACP        -0.8008
     29 C2         -4.4510    0.3913    0.2069 C.ar      1 ACP         0.6565
     30 N3         -3.2368    0.2296    0.7767 N.ar      1 ACP        -0.7061
     31 C4         -2.8684   -1.0596    0.7376 C.ar      1 ACP         0.5715
     32 HOG3        2.6459    8.9802    4.0263 H         1 ACP         0.4226
     33 HOB2       -2.6620    5.2078    5.2971 H         1 ACP         0.4482
     34 H3B1       -1.0917    8.5834    4.0970 H         1 ACP         0.1012
     35 H3B2       -0.4793    8.0076    2.5492 H         1 ACP         0.1012
     36 H5'1       -1.7769    2.7851    2.1387 H         1 ACP         0.0481
     37 H5'2       -1.1653    2.0543    0.6320 H         1 ACP         0.0481
     38 H4'         0.0403    1.7078    3.4343 H         1 ACP         0.0904
     39 H3'         1.5906    1.4859    1.1353 H         1 ACP         0.0809
     40 HO3'        2.6839   -0.1150    2.2479 H         1 ACP         0.4528
     41 H2'        -0.0017    0.0018    0.0005 H         1 ACP         0.0594
     42 HO2'        0.9369   -2.0558    0.0825 H         1 ACP         0.4344
     43 H1'        -0.1998   -1.6319    2.6178 H         1 ACP         0.1127
     44 H8         -0.9745   -3.6312    1.2318 H         1 ACP         0.1050
     45 HN61       -5.2619   -3.7766   -0.9586 H         1 ACP         0.4211
     46 HN62       -6.4834   -2.5990   -1.3590 H         1 ACP         0.4211
     47 H2         -4.8317    1.4071    0.1930 H         1 ACP         0.0375
@<TRIPOS>BOND
     1    1    2 2
     2    1    3 1
     3    1    4 1
     4    1    8 1
     5    4   32 1
     6    5    6 2
     7    5    7 1
     8    5    8 1
     9    5   12 1
    10    7   33 1
    11    8   34 1
    12    8   35 1
    13    9   10 2
    14    9   11 1
    15    9   12 1
    16    9   13 1
    17   13   14 1
    18   14   15 1
    19   14   36 1
    20   14   37 1
    21   15   16 1
    22   15   17 1
    23   15   38 1
    24   16   21 1
    25   17   18 1
    26   17   19 1
    27   17   39 1
    28   18   40 1
    29   19   20 1
    30   19   21 1
    31   19   41 1
    32   20   42 1
    33   21   22 1
    34   21   43 1
    35   22   23 ar
    36   22   31 ar
    37   23   24 ar
    38   23   44 1
    39   24   25 ar
    40   25   26 ar
    41   25   31 ar
    42   26   27 1
    43   26   28 ar
    44   27   45 1
    45   27   46 1
    46   28   29 ar
    47   29   30 ar
    48   29   47 1
    49   30   31 ar
@<TRIPOS>SUBSTRUCTURE
     1 ACP         1 GROUP 0 A     ****
@<TRIPOS>MOLECULE
[[[5-(6-aminopurin-9-yl)-3,4-dihydroxy-tetrahydrofuran-2-yl]methoxy-oxido-phosphoryl]oxy-hydroxy-phosphoryl]methyl-hydroxy-phosphinate
   47    49     1     0     0
SMALL
USER_CHARGES

@<TRIPOS>ATOM
      1 PG          7.1319    6.5694    3.1345 P.3       1 ACP         1.3516
      2 O1G         7.9041    5.9264    2.0059 O.co2     1 ACP        -0.8379
      3 O2G         7.5967    6.5020    4.5709 O.co2     1 ACP        -0.8379
      4 O3G         6.7939    8.1171    2.7469 O.3       1 ACP        -0.7980
      5 PB          5.0228    4.1416    3.2436 P.3       1 ACP         1.7688
      6 O1B         3.5632    3.8071    3.1677 O.2       1 ACP        -0.9167
      7 O2B         5.7451    3.7196    4.6263 O.3       1 ACP        -0.8201
      8 C3B         5.4104    5.8971    3.0762 C.3       1 ACP        -0.6097
      9 PA          6.2530    1.9160    1.7309 P.3       1 ACP         1.5979
     10 O1A         6.6842    1.1958    2.9899 O.co2     1 ACP        -0.8617
     11 O2A         7.1033    1.8634    0.4804 O.co2     1 ACP        -0.8617
     12 O3A         5.9577    3.4761    2.1083 O.3       1 ACP        -0.8283
     13 O5'         4.7294    1.4426    1.3699 O.3       1 ACP        -0.5783
     14 C5'         4.0922    1.9801    0.2227 C.3       1 ACP         0.1980
     15 C4'         2.5944    2.0310    0.4653 C.3       1 ACP         0.0815
     16 O4'         1.9327    2.5740   -0.6889 O.3       1 ACP        -0.4127
     17 C3'         1.9685    0.6634    0.6767 C.3       1 ACP         0.0890
     18 O3'         2.1425    0.1975    1.9977 O.3       1 ACP        -0.6221
     19 C2'         0.5176    0.9128    0.3099 C.3       1 ACP         0.1067
     20 O2'        -0.2103    1.4454    1.4152 O.3       1 ACP        -0.6053
     21 C1'         0.6219    1.9765   -0.7844 C.3       1 ACP         0.4223
     22 N9          0.4237    1.4496   -2.1357 N.pl3     1 ACP        -0.6834
     23 C8          1.4026    0.9717   -2.9660 C.ar      1 ACP         0.5614
     24 N7          0.9183    0.5619   -4.1197 N.2       1 ACP        -0.5751
     25 C5         -0.4330    0.7845   -4.0331 C.ar      1 ACP        -0.2117
     26 C6         -1.4794    0.5615   -4.9225 C.ar      1 ACP         0.7177
     27 N6         -1.2378    0.0044   -6.1899 N.pl3     1 ACP        -0.9401
     28 N1         -2.7406    0.8885   -4.5512 N.ar      1 ACP        -0.8008
     29 C2         -2.9113    1.4216   -3.3172 C.ar      1 ACP         0.6565
     30 N3         -1.9824    1.6843   -2.3721 N.ar      1 ACP        -0.7061
     31 C4         -0.7613    1.3370   -2.8054 C.ar      1 ACP         0.5715
     32 HOG3        7.5402    8.7293    2.5724 H         1 ACP         0.4226
     33 HOB2        5.7531    2.7745    4.8888 H         1 ACP         0.4482
     34 H3B1        4.8493    6.4354    3.8485 H         1 ACP         0.1012
     35 H3B2        5.0135    6.2205    2.1080 H         1 ACP         0.1012
     36 H5'1        4.4844    2.9853    0.0382 H         1 ACP         0.0481
     37 H5'2        4.3192    1.3445   -0.6390 H         1 ACP         0.0481
     38 H4'         2.3751    2.7029    1.3156 H         1 ACP         0.0904
     39 H3'         2.4336   -0.1217   -0.0015 H         1 ACP         0.0809
     40 HO3'        3.0987    0.1465    2.1461 H         1 ACP         0.4528
     41 H2'         0.0316    0.0155   -0.0339 H         1 ACP         0.0594
     42 HO2'       -1.1270    1.5823    1.1180 H         1 ACP         0.4344
     43 H1'        -0.1474    2.7798   -0.6651 H         1 ACP         0.1127
     44 H8          2.4442    0.9470   -2.6763 H         1 ACP         0.1050
     45 HN61       -0.2955   -0.1901   -6.4713 H         1 ACP         0.4211
     46 HN62       -1.9987   -0.1045   -6.8334 H         1 ACP         0.4211
     47 H2         -3.9335    1.6716   -3.0534 H         1 ACP         0.0375
@<TRIPOS>BOND
     1    1    2 2
     2    1    3 1
     3    1    4 1
     4    1    8 1
     5    4   32 1
     6    5    6 2
     7    5    7 1
     8    5    8 1
     9    5   12 1
    10    7   33 1
    11    8   34 1
    12    8   35 1
    13    9   10 2
    14    9   11 1
    15    9   12 1
    16    9   13 1
    17   13   14 1
    18   14   15 1
    19   14   36 1
    20   14   37 1
    21   15   16 1
    22   15   17 1
    23   15   38 1
    24   16   21 1
    25   17   18 1
    26   17   19 1
    27   17   39 1
    28   18   40 1
    29   19   20 1
    30   19   21 1
    31   19   41 1
    32   20   42 1
    33   21   22 1
    34   21   43 1
    35   22   23 ar
    36   22   31 ar
    37   23   24 ar
    38   23   44 1
    39   24   25 ar
    40   25   26 ar
    41   25   31 ar
    42   26   27 1
    43   26   28 ar
    44   27   45 1
    45   27   46 1
    46   28   29 ar
    47   29   30 ar
    48   29   47 1
    49   30   31 ar
@<TRIPOS>SUBSTRUCTURE
     1 ACP         1 GROUP 0 A     ****
@<TRIPOS>MOLECULE
[[[5-(6-aminopurin-9-yl)-3,4-dihydroxy-tetrahydrofuran-2-yl]methoxy-oxido-phosphoryl]oxy-hydroxy-phosphoryl]methyl-hydroxy-phosphinate
   47    49     1     0     0
SMALL
USER_CHARGES

@<TRIPOS>ATOM
      1 PG          7.9889    3.3953    4.5610 P.3       1 ACP         1.3516
      2 O1G         8.8663    2.8710    5.6739 O.co2     1 ACP        -0.8379
      3 O2G         6.5643    2.9289    4.3692 O.co2     1 ACP        -0.8379
      4 O3G         8.0292    5.0257    4.5618 O.3       1 ACP        -0.7980
      5 PB          8.2238    3.5724    1.3567 P.3       1 ACP         1.7688
      6 O1B         9.1115    3.2495    0.1923 O.2       1 ACP        -0.9167
      7 O2B         7.8691    5.1399    1.5259 O.3       1 ACP        -0.8201
      8 C3B         8.8862    3.1064    2.9703 C.3       1 ACP        -0.6097
      9 PA          6.3567    1.2769    1.3738 P.3       1 ACP         1.5979
     10 O1A         6.7670    0.6862    2.7051 O.co2     1 ACP        -0.8617
     11 O2A         6.7982    0.6375    0.0753 O.co2     1 ACP        -0.8617
     12 O3A         6.7784    2.8535    1.3607 O.3       1 ACP        -0.8283
     13 O5'         4.7294    1.4426    1.3699 O.3       1 ACP        -0.5783
     14 C5'         4.0922    1.9801    0.2227 C.3       1 ACP         0.1980
     15 C4'         2.5944    2.0310    0.4653 C.3       1 ACP         0.0815
     16 O4'         1.9327    2.5740   -0.6889 O.3       1 ACP        -0.4127
     17 C3'         1.9685    0.6634    0.6767 C.3       1 ACP         0.0890
     18 O3'         2.1425    0.1975    1.9977 O.3       1 ACP        -0.6221
     19 C2'         0.5176    0.9128    0.3099 C.3       1 ACP         0.1067
     20 O2'        -0.2103    1.4454    1.4152 O.3       1 ACP        -0.6053
     21 C1'         0.6219    1.9765   -0.7844 C.3       1 ACP         0.4223
     22 N9          0.4237    1.4496   -2.1357 N.pl3     1 ACP        -0.6834
     23 C8          1.4026    0.9717   -2.9660 C.ar      1 ACP         0.5614
     24 N7          0.9183    0.5619   -4.1197 N.2       1 ACP        -0.5751
     25 C5         -0.4330    0.7845   -4.0331 C.ar      1 ACP        -0.2117
     26 C6         -1.4794    0.5615   -4.9225 C.ar      1 ACP         0.7177
     27 N6         -1.2378    0.0044   -6.1899 N.pl3     1 ACP        -0.9401
     28 N1         -2.7406    0.8885   -4.5512 N.ar      1 ACP        -0.8008
     29 C2         -2.9113    1.4216   -3.3172 C.ar      1 ACP         0.6565
     30 N3         -1.9824    1.6843   -2.3721 N.ar      1 ACP        -0.7061
     31 C4         -0.7613    1.3370   -2.8054 C.ar      1 ACP         0.5715
     32 HOG3        7.7269    5.5008    5.3650 H         1 ACP         0.4226
     33 HOB2        7.4027    5.6028    0.7976 H         1 ACP         0.4482
     34 H3B1        9.8619    3.5930    3.0809 H         1 ACP         0.1012
     35 H3B2        9.0683    2.0268    2.9407 H         1 ACP         0.1012
     36 H5'1        4.4844    2.9853    0.0382 H         1 ACP         0.0481
     37 H5'2        4.3192    1.3445   -0.6390 H         1 ACP         0.0481
     38 H4'         2.3751    2.7029    1.3156 H         1 ACP         0.0904
     39 H3'         2.4336   -0.1217   -0.0015 H         1 ACP         0.0809
     40 HO3'        3.0987    0.1465    2.1461 H         1 ACP         0.4528
     41 H2'         0.0316    0.0155   -0.0339 H         1 ACP         0.0594
     42 HO2'       -0.1608    0.7921    2.1351 H         1 ACP         0.4344
     43 H1'        -0.1474    2.7798   -0.6651 H         1 ACP         0.1127
     44 H8          2.4442    0.9470   -2.6763 H         1 ACP         0.1050
     45 HN61       -0.2955   -0.1901   -6.4713 H         1 ACP         0.4211
     46 HN62       -1.9987   -0.1045   -6.8334 H         1 ACP         0.4211
     47 H2         -3.9335    1.6716   -3.0534 H         1 ACP         0.0375
@<TRIPOS>BOND
     1    1    2 2
     2    1    3 1
     3    1    4 1
     4    1    8 1
     5    4   32 1
     6    5    6 2
     7    5    7 1
     8    5    8 1
     9    5   12 1
    10    7   33 1
    11    8   34 1
    12    8   35 1
    13    9   10 2
    14    9   11 1
    15    9   12 1
    16    9   13 1
    17   13   14 1
    18   14   15 1
    19   14   36 1
    20   14   37 1
    21   15   16 1
    22   15   17 1
    23   15   38 1
    24   16   21 1
    25   17   18 1
    26   17   19 1
    27   17   39 1
    28   18   40 1
    29   19   20 1
    30   19   21 1
    31   19   41 1
    32   20   42 1
    33   21   22 1
    34   21   43 1
    35   22   23 ar
    36   22   31 ar
    37   23   24 ar
    38   23   44 1
    39   24   25 ar
    40   25   26 ar
    41   25   31 ar
    42   26   27 1
    43   26   28 ar
    44   27   45 1
    45   27   46 1
    46   28   29 ar
    47   29   30 ar
    48   29   47 1
    49   30   31 ar
@<TRIPOS>SUBSTRUCTURE
     1 ACP         1 GROUP 0 A     ****
@<TRIPOS>MOLECULE
[[[5-(6-aminopurin-9-yl)-3,4-dihydroxy-tetrahydrofuran-2-yl]methoxy-oxido-phosphoryl]oxy-hydroxy-phosphoryl]methyl-hydroxy-phosphinate
   47    49     1     0     0
SMALL
USER_CHARGES

@<TRIPOS>ATOM
      1 PG          6.7066    5.9465   -0.1977 P.3       1 ACP         1.3516
      2 O1G         5.3692    5.2542   -0.0726 O.co2     1 ACP        -0.8379
      3 O2G         7.5182    5.9090   -1.4719 O.co2     1 ACP        -0.8379
      4 O3G         6.5671    7.4901    0.3102 O.3       1 ACP        -0.7980
      5 PB          8.2238    3.5724    1.3567 P.3       1 ACP         1.7688
      6 O1B         9.1080    3.2698    2.5291 O.2       1 ACP        -0.9167
      7 O2B         8.8429    3.1730   -0.0817 O.3       1 ACP        -0.8201
      8 C3B         7.7837    5.3129    1.1652 C.3       1 ACP        -0.6097
      9 PA          6.3567    1.2769    1.3738 P.3       1 ACP         1.5979
     10 O1A         6.7670    0.6862    2.7051 O.co2     1 ACP        -0.8617
     11 O2A         6.7982    0.6375    0.0753 O.co2     1 ACP        -0.8617
     12 O3A         6.7784    2.8535    1.3607 O.3       1 ACP        -0.8283
     13 O5'         4.7294    1.4426    1.3699 O.3       1 ACP        -0.5783
     14 C5'         4.0922    1.9801    0.2227 C.3       1 ACP         0.1980
     15 C4'         2.5944    2.0310    0.4653 C.3       1 ACP         0.0815
     16 O4'         1.9327    2.5740   -0.6889 O.3       1 ACP        -0.4127
     17 C3'         1.9685    0.6634    0.6767 C.3       1 ACP         0.0890
     18 O3'         2.1425    0.1975    1.9977 O.3       1 ACP        -0.6221
     19 C2'         0.5176    0.9128    0.3099 C.3       1 ACP         0.1067
     20 O2'        -0.2103    1.4454    1.4152 O.3       1 ACP        -0.6053
     21 C1'         0.6219    1.9765   -0.7844 C.3       1 ACP         0.4223
     22 N9          0.4237    1.4496   -2.1357 N.pl3     1 ACP        -0.6834
     23 C8         -0.7736    1.3475   -2.7932 C.ar      1 ACP         0.5614
     24 N7         -0.6356    0.8373   -3.9991 N.2       1 ACP        -0.5751
     25 C5          0.7095    0.5981   -4.1281 C.ar      1 ACP        -0.2117
     26 C6          1.4733    0.0704   -5.1643 C.ar      1 ACP         0.7177
     27 N6          0.8693   -0.3355   -6.3666 N.pl3     1 ACP        -0.9401
     28 N1          2.8130   -0.0482   -5.0009 N.ar      1 ACP        -0.8008
     29 C2          3.3380    0.3602   -3.8204 C.ar      1 ACP         0.6565
     30 N3          2.7052    0.8841   -2.7480 N.ar      1 ACP        -0.7061
     31 C4          1.3867    0.9726   -2.9785 C.ar      1 ACP         0.5715
     32 HOG3        5.9346    8.0796   -0.1532 H         1 ACP         0.4226
     33 HOB2        9.0745    2.2358   -0.2554 H         1 ACP         0.4482
     34 H3B1        8.7160    5.8857    1.1049 H         1 ACP         0.1012
     35 H3B2        7.2797    5.6179    2.0886 H         1 ACP         0.1012
     36 H5'1        4.4844    2.9853    0.0382 H         1 ACP         0.0481
     37 H5'2        4.3192    1.3445   -0.6390 H         1 ACP         0.0481
     38 H4'         2.3751    2.7029    1.3156 H         1 ACP         0.0904
     39 H3'         2.4336   -0.1217   -0.0015 H         1 ACP         0.0809
     40 HO3'        3.0987    0.1465    2.1461 H         1 ACP         0.4528
     41 H2'         0.0316    0.0155   -0.0339 H         1 ACP         0.0594
     42 HO2'       -0.1608    0.7921    2.1351 H         1 ACP         0.4344
     43 H1'        -0.1474    2.7798   -0.6651 H         1 ACP         0.1127
     44 H8         -1.7070    1.6599   -2.3451 H         1 ACP         0.1050
     45 HN61       -0.1277   -0.2866   -6.4583 H         1 ACP         0.4211
     46 HN62        1.4308   -0.7566   -7.0823 H         1 ACP         0.4211
     47 H2          4.4130    0.2505   -3.7241 H         1 ACP         0.0375
@<TRIPOS>BOND
     1    1    2 2
     2    1    3 1
     3    1    4 1
     4    1    8 1
     5    4   32 1
     6    5    6 2
     7    5    7 1
     8    5    8 1
     9    5   12 1
    10    7   33 1
    11    8   34 1
    12    8   35 1
    13    9   10 2
    14    9   11 1
    15    9   12 1
    16    9   13 1
    17   13   14 1
    18   14   15 1
    19   14   36 1
    20   14   37 1
    21   15   16 1
    22   15   17 1
    23   15   38 1
    24   16   21 1
    25   17   18 1
    26   17   19 1
    27   17   39 1
    28   18   40 1
    29   19   20 1
    30   19   21 1
    31   19   41 1
    32   20   42 1
    33   21   22 1
    34   21   43 1
    35   22   23 ar
    36   22   31 ar
    37   23   24 ar
    38   23   44 1
    39   24   25 ar
    40   25   26 ar
    41   25   31 ar
    42   26   27 1
    43   26   28 ar
    44   27   45 1
    45   27   46 1
    46   28   29 ar
    47   29   30 ar
    48   29   47 1
    49   30   31 ar
@<TRIPOS>SUBSTRUCTURE
     1 ACP         1 GROUP 0 A     ****
@<TRIPOS>MOLECULE
[[[5-(6-aminopurin-9-yl)-3,4-dihydroxy-tetrahydrofuran-2-yl]methoxy-oxido-phosphoryl]oxy-hydroxy-phosphoryl]methyl-hydroxy-phosphinate
   47    49     1     0     0
SMALL
USER_CHARGES

@<TRIPOS>ATOM
      1 PG         -4.4542    3.7082   -3.5207 P.3       1 ACP         1.3516
      2 O1G        -4.9379    2.8710   -4.6820 O.co2     1 ACP        -0.8379
      3 O2G        -3.0785    4.3333   -3.4948 O.co2     1 ACP        -0.8379
      4 O3G        -5.5712    4.8432   -3.1687 O.3       1 ACP        -0.7980
      5 PB         -4.1692    3.2648   -0.3464 P.3       1 ACP         1.7688
      6 O1B        -4.3875    2.2744    0.7579 O.2       1 ACP        -0.9167
      7 O2B        -4.9887    4.6487   -0.1891 O.3       1 ACP        -0.8201
      8 C3B        -4.6259    2.6811   -1.9928 C.3       1 ACP        -0.6097
      9 PA         -1.2907    2.9171   -0.9369 P.3       1 ACP         1.5979
     10 O1A        -0.1118    3.8610   -0.8407 O.co2     1 ACP        -0.8617
     11 O2A        -1.5350    2.1110   -2.1940 O.co2     1 ACP        -0.8617
     12 O3A        -2.6451    3.7491   -0.5668 O.3       1 ACP        -0.8283
     13 O5'        -1.2434    1.9102    0.3513 O.3       1 ACP        -0.5783
     14 C5'        -0.8811    2.4285    1.6206 C.3       1 ACP         0.1980
     15 C4'        -0.1994    1.3333    2.4288 C.3       1 ACP         0.0815
     16 O4'        -1.1285    0.2356    2.5840 O.3       1 ACP        -0.4127
     17 C3'         1.0324    0.7610    1.7344 C.3       1 ACP         0.0890
     18 O3'         1.9175    0.2377    2.7247 O.3       1 ACP        -0.6221
     19 C2'         0.4468   -0.3802    0.9263 C.3       1 ACP         0.1067
     20 O2'         1.3993   -1.3703    0.5961 O.3       1 ACP        -0.6053
     21 C1'        -0.6159   -0.9100    1.8769 C.3       1 ACP         0.4223
     22 N9         -1.7127   -1.6108    1.2130 N.pl3     1 ACP        -0.6834
     23 C8         -2.8641   -1.0399    0.7392 C.ar      1 ACP         0.5614
     24 N7         -3.6659   -1.9257    0.1858 N.2       1 ACP        -0.5751
     25 C5         -3.0053   -3.1223    0.3069 C.ar      1 ACP        -0.2117
     26 C6         -3.3321   -4.4178   -0.0813 C.ar      1 ACP         0.7177
     27 N6         -4.5476   -4.6866   -0.7335 N.pl3     1 ACP        -0.9401
     28 N1         -2.4608   -5.4225    0.1773 N.ar      1 ACP        -0.8008
     29 C2         -1.3053   -5.1020    0.8081 C.ar      1 ACP         0.6565
     30 N3         -0.8788   -3.8921    1.2315 N.ar      1 ACP        -0.7061
     31 C4         -1.7870   -2.9477    0.9438 C.ar      1 ACP         0.5715
     32 HOG3       -5.8132    5.4926   -3.8630 H         1 ACP         0.4226
     33 HOB2       -4.8300    5.2076    0.6012 H         1 ACP         0.4482
     34 H3B1       -5.6759    2.3695   -1.9543 H         1 ACP         0.1012
     35 H3B2       -4.0320    1.7820   -2.1886 H         1 ACP         0.1012
     36 H5'1       -0.2034    3.2760    1.4766 H         1 ACP         0.0481
     37 H5'2       -1.7842    2.7761    2.1321 H         1 ACP         0.0481
     38 H4'         0.0403    1.7078    3.4343 H         1 ACP         0.0904
     39 H3'         1.5906    1.4859    1.1353 H         1 ACP         0.0809
     40 HO3'        2.6839   -0.1150    2.2479 H         1 ACP         0.4528
     41 H2'        -0.0017    0.0018    0.0005 H         1 ACP         0.0594
     42 HO2'        2.0953   -0.9375    0.0709 H         1 ACP         0.4344
     43 H1'        -0.1998   -1.6319    2.6178 H         1 ACP         0.1127
     44 H8         -3.0609    0.0200    0.8250 H         1 ACP         0.1050
     45 HN61       -5.2046   -3.9433   -0.8775 H         1 ACP         0.4211
     46 HN62       -4.7849   -5.6332   -0.9625 H         1 ACP         0.4211
     47 H2         -0.6318   -5.9307    0.9993 H         1 ACP         0.0375
@<TRIPOS>BOND
     1    1    2 2
     2    1    3 1
     3    1    4 1
     4    1    8 1
     5    4   32 1
     6    5    6 2
     7    5    7 1
     8    5    8 1
     9    5   12 1
    10    7   33 1
    11    8   34 1
    12    8   35 1
    13    9   10 2
    14    9   11 1
    15    9   12 1
    16    9   13 1
    17   13   14 1
    18   14   15 1
    19   14   36 1
    20   14   37 1
    21   15   16 1
    22   15   17 1
    23   15   38 1
    24   16   21 1
    25   17   18 1
    26   17   19 1
    27   17   39 1
    28   18   40 1
    29   19   20 1
    30   19   21 1
    31   19   41 1
    32   20   42 1
    33   21   22 1
    34   21   43 1
    35   22   23 ar
    36   22   31 ar
    37   23   24 ar
    38   23   44 1
    39   24   25 ar
    40   25   26 ar
    41   25   31 ar
    42   26   27 1
    43   26   28 ar
    44   27   45 1
    45   27   46 1
    46   28   29 ar
    47   29   30 ar
    48   29   47 1
    49   30   31 ar
@<TRIPOS>SUBSTRUCTURE
     1 ACP         1 GROUP 0 A     ****
@<TRIPOS>MOLECULE
[[[5-(6-aminopurin-9-yl)-3,4-dihydroxy-tetrahydrofuran-2-yl]methoxy-oxido-phosphoryl]oxy-hydroxy-phosphoryl]methyl-hydroxy-phosphinate
   47    49     1     0     0
SMALL
USER_CHARGES

@<TRIPOS>ATOM
      1 PG          7.0659   -0.1321    3.2950 P.3       1 ACP         1.3516
      2 O1G         7.0252   -1.0101    4.5241 O.co2     1 ACP        -0.8379
      3 O2G         5.8521    0.6203    2.8006 O.co2     1 ACP        -0.8379
      4 O3G         8.3309    0.8918    3.4022 O.3       1 ACP        -0.7980
      5 PB          7.8988   -0.5498    0.2150 P.3       1 ACP         1.7688
      6 O1B         8.4094   -1.5576   -0.7707 O.2       1 ACP        -0.9167
      7 O2B         8.8396    0.7502    0.4061 O.3       1 ACP        -0.8201
      8 C3B         7.6818   -1.1724    1.8958 C.3       1 ACP        -0.6097
      9 PA          5.8980    0.9306   -1.3851 P.3       1 ACP         1.5979
     10 O1A         5.8858    0.0210   -2.5944 O.co2     1 ACP        -0.8617
     11 O2A         6.6098    2.2652   -1.4287 O.co2     1 ACP        -0.8617
     12 O3A         6.4463    0.0768   -0.1069 O.3       1 ACP        -0.8283
     13 O5'         4.3515    1.1573   -0.9028 O.3       1 ACP        -0.5783
     14 C5'         4.0922    1.9801    0.2227 C.3       1 ACP         0.1980
     15 C4'         2.5944    2.0310    0.4653 C.3       1 ACP         0.0815
     16 O4'         1.9327    2.5740   -0.6889 O.3       1 ACP        -0.4127
     17 C3'         1.9685    0.6634    0.6767 C.3       1 ACP         0.0890
     18 O3'         2.1425    0.1975    1.9977 O.3       1 ACP        -0.6221
     19 C2'         0.5176    0.9128    0.3099 C.3       1 ACP         0.1067
     20 O2'        -0.2103    1.4454    1.4152 O.3       1 ACP        -0.6053
     21 C1'         0.6219    1.9765   -0.7844 C.3       1 ACP         0.4223
     22 N9          0.4237    1.4496   -2.1357 N.pl3     1 ACP        -0.6834
     23 C8          1.4026    0.9717   -2.9660 C.ar      1 ACP         0.5614
     24 N7          0.9183    0.5619   -4.1197 N.2       1 ACP        -0.5751
     25 C5         -0.4330    0.7845   -4.0331 C.ar      1 ACP        -0.2117
     26 C6         -1.4794    0.5615   -4.9225 C.ar      1 ACP         0.7177
     27 N6         -1.2378    0.0044   -6.1899 N.pl3     1 ACP        -0.9401
     28 N1         -2.7406    0.8885   -4.5512 N.ar      1 ACP        -0.8008
     29 C2         -2.9113    1.4216   -3.3172 C.ar      1 ACP         0.6565
     30 N3         -1.9824    1.6843   -2.3721 N.ar      1 ACP        -0.7061
     31 C4         -0.7613    1.3370   -2.8054 C.ar      1 ACP         0.5715
     32 HOG3        8.3647    1.5160    4.1581 H         1 ACP         0.4226
     33 HOB2        9.0248    1.3207   -0.3700 H         1 ACP         0.4482
     34 H3B1        8.6437   -1.5820    2.2242 H         1 ACP         0.1012
     35 H3B2        6.9799   -2.0111    1.8372 H         1 ACP         0.1012
     36 H5'1        4.6070    1.5616    1.0933 H         1 ACP         0.0481
     37 H5'2        4.4825    2.9835    0.0252 H         1 ACP         0.0481
     38 H4'         2.3751    2.7029    1.3156 H         1 ACP         0.0904
     39 H3'         2.4336   -0.1217   -0.0015 H         1 ACP         0.0809
     40 HO3'        1.7160   -0.6716    2.0397 H         1 ACP         0.4528
     41 H2'         0.0316    0.0155   -0.0339 H         1 ACP         0.0594
     42 HO2'       -0.1608    0.7921    2.1351 H         1 ACP         0.4344
     43 H1'        -0.1474    2.7798   -0.6651 H         1 ACP         0.1127
     44 H8          2.4442    0.9470   -2.6763 H         1 ACP         0.1050
     45 HN61       -0.2955   -0.1901   -6.4713 H         1 ACP         0.4211
     46 HN62       -1.9987   -0.1045   -6.8334 H         1 ACP         0.4211
     47 H2         -3.9335    1.6716   -3.0534 H         1 ACP         0.0375
@<TRIPOS>BOND
     1    1    2 2
     2    1    3 1
     3    1    4 1
     4    1    8 1
     5    4   32 1
     6    5    6 2
     7    5    7 1
     8    5    8 1
     9    5   12 1
    10    7   33 1
    11    8   34 1
    12    8   35 1
    13    9   10 2
    14    9   11 1
    15    9   12 1
    16    9   13 1
    17   13   14 1
    18   14   15 1
    19   14   36 1
    20   14   37 1
    21   15   16 1
    22   15   17 1
    23   15   38 1
    24   16   21 1
    25   17   18 1
    26   17   19 1
    27   17   39 1
    28   18   40 1
    29   19   20 1
    30   19   21 1
    31   19   41 1
    32   20   42 1
    33   21   22 1
    34   21   43 1
    35   22   23 ar
    36   22   31 ar
    37   23   24 ar
    38   23   44 1
    39   24   25 ar
    40   25   26 ar
    41   25   31 ar
    42   26   27 1
    43   26   28 ar
    44   27   45 1
    45   27   46 1
    46   28   29 ar
    47   29   30 ar
    48   29   47 1
    49   30   31 ar
@<TRIPOS>SUBSTRUCTURE
     1 ACP         1 GROUP 0 A     ****
@<TRIPOS>MOLECULE
[[[5-(6-aminopurin-9-yl)-3,4-dihydroxy-tetrahydrofuran-2-yl]methoxy-oxido-phosphoryl]oxy-hydroxy-phosphoryl]methyl-hydroxy-phosphinate
   47    49     1     0     0
SMALL
USER_CHARGES

@<TRIPOS>ATOM
      1 PG          6.8067   -3.1294   -1.3683 P.3       1 ACP         1.3516
      2 O1G         7.3069   -3.9750   -2.5164 O.co2     1 ACP        -0.8379
      3 O2G         5.4485   -2.4668   -1.3864 O.co2     1 ACP        -0.8379
      4 O3G         6.9900   -3.9501    0.0291 O.3       1 ACP        -0.7980
      5 PB          7.8988   -0.5498    0.2150 P.3       1 ACP         1.7688
      6 O1B         9.0316    0.4297    0.2899 O.2       1 ACP        -0.9167
      7 O2B         7.6526   -1.4075    1.5624 O.3       1 ACP        -0.8201
      8 C3B         8.0649   -1.8079   -1.0693 C.3       1 ACP        -0.6097
      9 PA          5.8980    0.9306   -1.3851 P.3       1 ACP         1.5979
     10 O1A         5.8858    0.0210   -2.5944 O.co2     1 ACP        -0.8617
     11 O2A         6.6098    2.2652   -1.4287 O.co2     1 ACP        -0.8617
     12 O3A         6.4463    0.0768   -0.1069 O.3       1 ACP        -0.8283
     13 O5'         4.3515    1.1573   -0.9028 O.3       1 ACP        -0.5783
     14 C5'         4.0922    1.9801    0.2227 C.3       1 ACP         0.1980
     15 C4'         2.5944    2.0310    0.4653 C.3       1 ACP         0.0815
     16 O4'         1.9327    2.5740   -0.6889 O.3       1 ACP        -0.4127
     17 C3'         1.9685    0.6634    0.6767 C.3       1 ACP         0.0890
     18 O3'         2.1425    0.1975    1.9977 O.3       1 ACP        -0.6221
     19 C2'         0.5176    0.9128    0.3099 C.3       1 ACP         0.1067
     20 O2'        -0.2103    1.4454    1.4152 O.3       1 ACP        -0.6053
     21 C1'         0.6219    1.9765   -0.7844 C.3       1 ACP         0.4223
     22 N9          0.4237    1.4496   -2.1357 N.pl3     1 ACP        -0.6834
     23 C8          1.1856    0.4888   -2.7458 C.ar      1 ACP         0.5614
     24 N7          0.7615    0.2176   -3.9625 N.2       1 ACP        -0.5751
     25 C5         -0.3220    1.0389   -4.1486 C.ar      1 ACP        -0.2117
     26 C6         -1.1900    1.2182   -5.2210 C.ar      1 ACP         0.7177
     27 N6         -1.0341    0.4739   -6.4028 N.pl3     1 ACP        -0.9401
     28 N1         -2.1929    2.1227   -5.1127 N.ar      1 ACP        -0.8008
     29 C2         -2.2930    2.8097   -3.9492 C.ar      1 ACP         0.6565
     30 N3         -1.5176    2.7252   -2.8462 N.ar      1 ACP        -0.7061
     31 C4         -0.5489    1.8142   -3.0226 C.ar      1 ACP         0.5715
     32 HOG3        6.5287   -4.8099    0.1306 H         1 ACP         0.4226
     33 HOB2        7.4394   -0.9340    2.3946 H         1 ACP         0.4482
     34 H3B1        9.0154   -2.3274   -0.9032 H         1 ACP         0.1012
     35 H3B2        8.1516   -1.2791   -2.0245 H         1 ACP         0.1012
     36 H5'1        4.6070    1.5616    1.0933 H         1 ACP         0.0481
     37 H5'2        4.4825    2.9835    0.0252 H         1 ACP         0.0481
     38 H4'         2.3751    2.7029    1.3156 H         1 ACP         0.0904
     39 H3'         2.4336   -0.1217   -0.0015 H         1 ACP         0.0809
     40 HO3'        1.7160   -0.6716    2.0397 H         1 ACP         0.4528
     41 H2'         0.0316    0.0155   -0.0339 H         1 ACP         0.0594
     42 HO2'       -0.1608    0.7921    2.1351 H         1 ACP         0.4344
     43 H1'        -0.1474    2.7798   -0.6651 H         1 ACP         0.1127
     44 H8          2.0314    0.0256   -2.2564 H         1 ACP         0.1050
     45 HN61       -0.2609   -0.1582   -6.4888 H         1 ACP         0.4211
     46 HN62       -1.6409    0.6517   -7.1807 H         1 ACP         0.4211
     47 H2         -3.1067    3.5253   -3.8975 H         1 ACP         0.0375
@<TRIPOS>BOND
     1    1    2 2
     2    1    3 1
     3    1    4 1
     4    1    8 1
     5    4   32 1
     6    5    6 2
     7    5    7 1
     8    5    8 1
     9    5   12 1
    10    7   33 1
    11    8   34 1
    12    8   35 1
    13    9   10 2
    14    9   11 1
    15    9   12 1
    16    9   13 1
    17   13   14 1
    18   14   15 1
    19   14   36 1
    20   14   37 1
    21   15   16 1
    22   15   17 1
    23   15   38 1
    24   16   21 1
    25   17   18 1
    26   17   19 1
    27   17   39 1
    28   18   40 1
    29   19   20 1
    30   19   21 1
    31   19   41 1
    32   20   42 1
    33   21   22 1
    34   21   43 1
    35   22   23 ar
    36   22   31 ar
    37   23   24 ar
    38   23   44 1
    39   24   25 ar
    40   25   26 ar
    41   25   31 ar
    42   26   27 1
    43   26   28 ar
    44   27   45 1
    45   27   46 1
    46   28   29 ar
    47   29   30 ar
    48   29   47 1
    49   30   31 ar
@<TRIPOS>SUBSTRUCTURE
     1 ACP         1 GROUP 0 A     ****
@<TRIPOS>MOLECULE
[[[5-(6-aminopurin-9-yl)-3,4-dihydroxy-tetrahydrofuran-2-yl]methoxy-oxido-phosphoryl]oxy-hydroxy-phosphoryl]methyl-hydroxy-phosphinate
   47    49     1     0     0
SMALL
USER_CHARGES

@<TRIPOS>ATOM
      1 PG          0.2118    3.0962   -4.2417 P.3       1 ACP         1.3516
      2 O1G         0.0180    1.9286   -3.3023 O.co2     1 ACP        -0.8379
      3 O2G         1.5755    3.6773   -4.5355 O.co2     1 ACP        -0.8379
      4 O3G        -0.5628    2.7966   -5.6453 O.3       1 ACP        -0.7980
      5 PB         -0.6920    5.2165   -1.9963 P.3       1 ACP         1.7688
      6 O1B        -1.6607    6.3223   -1.7014 O.2       1 ACP        -0.9167
      7 O2B         0.8656    5.6413   -1.9254 O.3       1 ACP        -0.8201
      8 C3B        -0.8598    4.4751   -3.6340 C.3       1 ACP        -0.6097
      9 PA         -1.9977    2.8866   -0.7226 P.3       1 ACP         1.5979
     10 O1A        -2.2657    2.0869   -1.9790 O.co2     1 ACP        -0.8617
     11 O2A        -3.1169    3.6285   -0.0250 O.co2     1 ACP        -0.8617
     12 O3A        -0.7786    3.9277   -1.0279 O.3       1 ACP        -0.8283
     13 O5'        -1.2434    1.9102    0.3513 O.3       1 ACP        -0.5783
     14 C5'        -0.8811    2.4285    1.6206 C.3       1 ACP         0.1980
     15 C4'        -0.1994    1.3333    2.4288 C.3       1 ACP         0.0815
     16 O4'        -1.1285    0.2356    2.5840 O.3       1 ACP        -0.4127
     17 C3'         1.0324    0.7610    1.7344 C.3       1 ACP         0.0890
     18 O3'         1.9175    0.2377    2.7247 O.3       1 ACP        -0.6221
     19 C2'         0.4468   -0.3802    0.9263 C.3       1 ACP         0.1067
     20 O2'         1.3993   -1.3703    0.5961 O.3       1 ACP        -0.6053
     21 C1'        -0.6159   -0.9100    1.8769 C.3       1 ACP         0.4223
     22 N9         -1.7127   -1.6108    1.2130 N.pl3     1 ACP        -0.6834
     23 C8         -2.8641   -1.0399    0.7392 C.ar      1 ACP         0.5614
     24 N7         -3.6659   -1.9257    0.1858 N.2       1 ACP        -0.5751
     25 C5         -3.0053   -3.1223    0.3069 C.ar      1 ACP        -0.2117
     26 C6         -3.3321   -4.4178   -0.0813 C.ar      1 ACP         0.7177
     27 N6         -4.5476   -4.6866   -0.7335 N.pl3     1 ACP        -0.9401
     28 N1         -2.4608   -5.4225    0.1773 N.ar      1 ACP        -0.8008
     29 C2         -1.3053   -5.1020    0.8081 C.ar      1 ACP         0.6565
     30 N3         -0.8788   -3.8921    1.2315 N.ar      1 ACP        -0.7061
     31 C4         -1.7870   -2.9477    0.9438 C.ar      1 ACP         0.5715
     32 HOG3       -0.2989    2.0084   -6.1663 H         1 ACP         0.4226
     33 HOB2        1.2253    5.9886   -1.0816 H         1 ACP         0.4482
     34 H3B1       -0.7660    5.2791   -4.3728 H         1 ACP         0.1012
     35 H3B2       -1.8829    4.0910   -3.7070 H         1 ACP         0.1012
     36 H5'1       -0.2034    3.2760    1.4766 H         1 ACP         0.0481
     37 H5'2       -1.7842    2.7761    2.1321 H         1 ACP         0.0481
     38 H4'         0.0403    1.7078    3.4343 H         1 ACP         0.0904
     39 H3'         1.5906    1.4859    1.1353 H         1 ACP         0.0809
     40 HO3'        2.6839   -0.1150    2.2479 H         1 ACP         0.4528
     41 H2'        -0.0017    0.0018    0.0005 H         1 ACP         0.0594
     42 HO2'        0.9369   -2.0558    0.0825 H         1 ACP         0.4344
     43 H1'        -0.1998   -1.6319    2.6178 H         1 ACP         0.1127
     44 H8         -3.0609    0.0200    0.8250 H         1 ACP         0.1050
     45 HN61       -5.2046   -3.9433   -0.8775 H         1 ACP         0.4211
     46 HN62       -4.7849   -5.6332   -0.9625 H         1 ACP         0.4211
     47 H2         -0.6318   -5.9307    0.9993 H         1 ACP         0.0375
@<TRIPOS>BOND
     1    1    2 2
     2    1    3 1
     3    1    4 1
     4    1    8 1
     5    4   32 1
     6    5    6 2
     7    5    7 1
     8    5    8 1
     9    5   12 1
    10    7   33 1
    11    8   34 1
    12    8   35 1
    13    9   10 2
    14    9   11 1
    15    9   12 1
    16    9   13 1
    17   13   14 1
    18   14   15 1
    19   14   36 1
    20   14   37 1
    21   15   16 1
    22   15   17 1
    23   15   38 1
    24   16   21 1
    25   17   18 1
    26   17   19 1
    27   17   39 1
    28   18   40 1
    29   19   20 1
    30   19   21 1
    31   19   41 1
    32   20   42 1
    33   21   22 1
    34   21   43 1
    35   22   23 ar
    36   22   31 ar
    37   23   24 ar
    38   23   44 1
    39   24   25 ar
    40   25   26 ar
    41   25   31 ar
    42   26   27 1
    43   26   28 ar
    44   27   45 1
    45   27   46 1
    46   28   29 ar
    47   29   30 ar
    48   29   47 1
    49   30   31 ar
@<TRIPOS>SUBSTRUCTURE
     1 ACP         1 GROUP 0 A     ****
@<TRIPOS>MOLECULE
[[[5-(6-aminopurin-9-yl)-3,4-dihydroxy-tetrahydrofuran-2-yl]methoxy-oxido-phosphoryl]oxy-hydroxy-phosphoryl]methyl-hydroxy-phosphinate
   47    49     1     0     0
SMALL
USER_CHARGES

@<TRIPOS>ATOM
      1 PG         -4.5270    6.0581   -1.8882 P.3       1 ACP         1.3516
      2 O1G        -4.7939    6.0247   -3.3751 O.co2     1 ACP        -0.8379
      3 O2G        -3.3158    6.7453   -1.3014 O.co2     1 ACP        -0.8379
      4 O3G        -5.8672    6.5640   -1.1085 O.3       1 ACP        -0.7980
      5 PB         -4.2332    3.8468    0.4309 P.3       1 ACP         1.7688
      6 O1B        -4.2643    2.3728    0.7033 O.2       1 ACP        -0.9167
      7 O2B        -5.3305    4.7109    1.2438 O.3       1 ACP        -0.8201
      8 C3B        -4.5154    4.3079   -1.2918 C.3       1 ACP        -0.6097
      9 PA         -2.0038    4.7531    2.1525 P.3       1 ACP         1.5979
     10 O1A        -2.9393    5.2969    3.2104 O.co2     1 ACP        -0.8617
     11 O2A        -0.6860    5.4370    1.8604 O.co2     1 ACP        -0.8617
     12 O3A        -2.8410    4.5946    0.7605 O.3       1 ACP        -0.8283
     13 O5'        -1.7337    3.1724    2.4753 O.3       1 ACP        -0.5783
     14 C5'        -0.8811    2.4285    1.6206 C.3       1 ACP         0.1980
     15 C4'        -0.1994    1.3333    2.4288 C.3       1 ACP         0.0815
     16 O4'        -1.1285    0.2356    2.5840 O.3       1 ACP        -0.4127
     17 C3'         1.0324    0.7610    1.7344 C.3       1 ACP         0.0890
     18 O3'         1.9175    0.2377    2.7247 O.3       1 ACP        -0.6221
     19 C2'         0.4468   -0.3802    0.9263 C.3       1 ACP         0.1067
     20 O2'         1.3993   -1.3703    0.5961 O.3       1 ACP        -0.6053
     21 C1'        -0.6159   -0.9100    1.8769 C.3       1 ACP         0.4223
     22 N9         -1.7127   -1.6108    1.2130 N.pl3     1 ACP        -0.6834
     23 C8         -2.0877   -2.9101    1.4304 C.ar      1 ACP         0.5614
     24 N7         -3.1152   -3.2613    0.6857 N.2       1 ACP        -0.5751
     25 C5         -3.4186   -2.1409   -0.0462 C.ar      1 ACP        -0.2117
     26 C6         -4.3953   -1.8809   -1.0023 C.ar      1 ACP         0.7177
     27 N6         -5.3118   -2.8767   -1.3812 N.pl3     1 ACP        -0.9401
     28 N1         -4.4538   -0.6507   -1.5667 N.ar      1 ACP        -0.8008
     29 C2         -3.5442    0.2679   -1.1609 C.ar      1 ACP         0.6565
     30 N3         -2.5561    0.1361   -0.2491 N.ar      1 ACP        -0.7061
     31 C4         -2.5568   -1.1019    0.2674 C.ar      1 ACP         0.5715
     32 HOG3       -6.2238    7.4531   -1.3198 H         1 ACP         0.4226
     33 HOB2       -5.3132    4.6988    2.2244 H         1 ACP         0.4482
     34 H3B1       -5.4763    3.8782   -1.5967 H         1 ACP         0.1012
     35 H3B2       -3.7401    3.8123   -1.8858 H         1 ACP         0.1012
     36 H5'1       -1.4802    1.9928    0.8147 H         1 ACP         0.0481
     37 H5'2       -0.1369    3.1042    1.1873 H         1 ACP         0.0481
     38 H4'         0.0403    1.7078    3.4343 H         1 ACP         0.0904
     39 H3'         1.5906    1.4859    1.1353 H         1 ACP         0.0809
     40 HO3'        2.6839   -0.1150    2.2479 H         1 ACP         0.4528
     41 H2'        -0.0017    0.0018    0.0005 H         1 ACP         0.0594
     42 HO2'        2.0953   -0.9375    0.0709 H         1 ACP         0.4344
     43 H1'        -0.1998   -1.6319    2.6178 H         1 ACP         0.1127
     44 H8         -1.5778   -3.5473    2.1399 H         1 ACP         0.1050
     45 HN61       -5.2294   -3.7965   -0.9914 H         1 ACP         0.4211
     46 HN62       -5.9774   -2.6837   -2.1055 H         1 ACP         0.4211
     47 H2         -3.6201    1.2414   -1.6336 H         1 ACP         0.0375
@<TRIPOS>BOND
     1    1    2 2
     2    1    3 1
     3    1    4 1
     4    1    8 1
     5    4   32 1
     6    5    6 2
     7    5    7 1
     8    5    8 1
     9    5   12 1
    10    7   33 1
    11    8   34 1
    12    8   35 1
    13    9   10 2
    14    9   11 1
    15    9   12 1
    16    9   13 1
    17   13   14 1
    18   14   15 1
    19   14   36 1
    20   14   37 1
    21   15   16 1
    22   15   17 1
    23   15   38 1
    24   16   21 1
    25   17   18 1
    26   17   19 1
    27   17   39 1
    28   18   40 1
    29   19   20 1
    30   19   21 1
    31   19   41 1
    32   20   42 1
    33   21   22 1
    34   21   43 1
    35   22   23 ar
    36   22   31 ar
    37   23   24 ar
    38   23   44 1
    39   24   25 ar
    40   25   26 ar
    41   25   31 ar
    42   26   27 1
    43   26   28 ar
    44   27   45 1
    45   27   46 1
    46   28   29 ar
    47   29   30 ar
    48   29   47 1
    49   30   31 ar
@<TRIPOS>SUBSTRUCTURE
     1 ACP         1 GROUP 0 A     ****
@<TRIPOS>MOLECULE
[[[5-(6-aminopurin-9-yl)-3,4-dihydroxy-tetrahydrofuran-2-yl]methoxy-oxido-phosphoryl]oxy-hydroxy-phosphoryl]methyl-hydroxy-phosphinate
   47    49     1     0     0
SMALL
USER_CHARGES

@<TRIPOS>ATOM
      1 PG         -3.4269    2.9106   -2.1814 P.3       1 ACP         1.3516
      2 O1G        -2.8954    2.0711   -1.0429 O.co2     1 ACP        -0.8379
      3 O2G        -2.5775    3.2815   -3.3751 O.co2     1 ACP        -0.8379
      4 O3G        -4.8437    2.2889   -2.6974 O.3       1 ACP        -0.7980
      5 PB         -3.0515    5.6370   -0.5141 P.3       1 ACP         1.7688
      6 O1B        -3.7718    6.8510   -0.0085 O.2       1 ACP        -0.9167
      7 O2B        -1.8140    5.9459   -1.5064 O.3       1 ACP        -0.8201
      8 C3B        -4.0741    4.4813   -1.4513 C.3       1 ACP        -0.6097
      9 PA         -3.0801    3.8628    1.8538 P.3       1 ACP         1.5979
     10 O1A        -3.9502    2.7657    1.2800 O.co2     1 ACP        -0.8617
     11 O2A        -3.6415    4.8527    2.8511 O.co2     1 ACP        -0.8617
     12 O3A        -2.4039    4.6816    0.6145 O.3       1 ACP        -0.8283
     13 O5'        -1.7337    3.1724    2.4753 O.3       1 ACP        -0.5783
     14 C5'        -0.8811    2.4285    1.6206 C.3       1 ACP         0.1980
     15 C4'        -0.1994    1.3333    2.4288 C.3       1 ACP         0.0815
     16 O4'        -1.1285    0.2356    2.5840 O.3       1 ACP        -0.4127
     17 C3'         1.0324    0.7610    1.7344 C.3       1 ACP         0.0890
     18 O3'         1.9175    0.2377    2.7247 O.3       1 ACP        -0.6221
     19 C2'         0.4468   -0.3802    0.9263 C.3       1 ACP         0.1067
     20 O2'         1.3993   -1.3703    0.5961 O.3       1 ACP        -0.6053
     21 C1'        -0.6159   -0.9100    1.8769 C.3       1 ACP         0.4223
     22 N9         -1.7127   -1.6108    1.2130 N.pl3     1 ACP        -0.6834
     23 C8         -2.8641   -1.0399    0.7392 C.ar      1 ACP         0.5614
     24 N7         -3.6659   -1.9257    0.1858 N.2       1 ACP        -0.5751
     25 C5         -3.0053   -3.1223    0.3069 C.ar      1 ACP        -0.2117
     26 C6         -3.3321   -4.4178   -0.0813 C.ar      1 ACP         0.7177
     27 N6         -4.5476   -4.6866   -0.7335 N.pl3     1 ACP        -0.9401
     28 N1         -2.4608   -5.4225    0.1773 N.ar      1 ACP        -0.8008
     29 C2         -1.3053   -5.1020    0.8081 C.ar      1 ACP         0.6565
     30 N3         -0.8788   -3.8921    1.2315 N.ar      1 ACP        -0.7061
     31 C4         -1.7870   -2.9477    0.9438 C.ar      1 ACP         0.5715
     32 HOG3       -4.8547    1.3688   -3.0372 H         1 ACP         0.4226
     33 HOB2       -1.0653    6.4876   -1.1777 H         1 ACP         0.4482
     34 H3B1       -4.5262    5.0365   -2.2810 H         1 ACP         0.1012
     35 H3B2       -4.8910    4.1704   -0.7913 H         1 ACP         0.1012
     36 H5'1       -1.4802    1.9928    0.8147 H         1 ACP         0.0481
     37 H5'2       -0.1369    3.1042    1.1873 H         1 ACP         0.0481
     38 H4'         0.0403    1.7078    3.4343 H         1 ACP         0.0904
     39 H3'         1.5906    1.4859    1.1353 H         1 ACP         0.0809
     40 HO3'        2.6839   -0.1150    2.2479 H         1 ACP         0.4528
     41 H2'        -0.0017    0.0018    0.0005 H         1 ACP         0.0594
     42 HO2'        2.0953   -0.9375    0.0709 H         1 ACP         0.4344
     43 H1'        -0.1998   -1.6319    2.6178 H         1 ACP         0.1127
     44 H8         -3.0609    0.0200    0.8250 H         1 ACP         0.1050
     45 HN61       -5.2046   -3.9433   -0.8775 H         1 ACP         0.4211
     46 HN62       -4.7849   -5.6332   -0.9625 H         1 ACP         0.4211
     47 H2         -0.6318   -5.9307    0.9993 H         1 ACP         0.0375
@<TRIPOS>BOND
     1    1    2 2
     2    1    3 1
     3    1    4 1
     4    1    8 1
     5    4   32 1
     6    5    6 2
     7    5    7 1
     8    5    8 1
     9    5   12 1
    10    7   33 1
    11    8   34 1
    12    8   35 1
    13    9   10 2
    14    9   11 1
    15    9   12 1
    16    9   13 1
    17   13   14 1
    18   14   15 1
    19   14   36 1
    20   14   37 1
    21   15   16 1
    22   15   17 1
    23   15   38 1
    24   16   21 1
    25   17   18 1
    26   17   19 1
    27   17   39 1
    28   18   40 1
    29   19   20 1
    30   19   21 1
    31   19   41 1
    32   20   42 1
    33   21   22 1
    34   21   43 1
    35   22   23 ar
    36   22   31 ar
    37   23   24 ar
    38   23   44 1
    39   24   25 ar
    40   25   26 ar
    41   25   31 ar
    42   26   27 1
    43   26   28 ar
    44   27   45 1
    45   27   46 1
    46   28   29 ar
    47   29   30 ar
    48   29   47 1
    49   30   31 ar
@<TRIPOS>SUBSTRUCTURE
     1 ACP         1 GROUP 0 A     ****
@<TRIPOS>MOLECULE
[[[5-(6-aminopurin-9-yl)-3,4-dihydroxy-tetrahydrofuran-2-yl]methoxy-oxido-phosphoryl]oxy-hydroxy-phosphoryl]methyl-hydroxy-phosphinate
   47    49     1     0     0
SMALL
USER_CHARGES

@<TRIPOS>ATOM
      1 PG         -0.5277    8.7956    2.0367 P.3       1 ACP         1.3516
      2 O1G        -0.0078    8.0529    3.2457 O.co2     1 ACP        -0.8379
      3 O2G        -1.7718    9.6518    2.0896 O.co2     1 ACP        -0.8379
      4 O3G         0.6875    9.6475    1.3604 O.3       1 ACP        -0.7980
      5 PB         -1.8779    6.1374    0.8265 P.3       1 ACP         1.7688
      6 O1B        -1.9246    5.2507   -0.3817 O.2       1 ACP        -0.9167
      7 O2B        -3.2934    6.8001    1.2374 O.3       1 ACP        -0.8201
      8 C3B        -0.7660    7.5531    0.6882 C.3       1 ACP        -0.6097
      9 PA          0.0332    4.7085    2.5761 P.3       1 ACP         1.5979
     10 O1A        -0.1161    4.0779    3.9435 O.co2     1 ACP        -0.8617
     11 O2A         1.1770    5.6544    2.2817 O.co2     1 ACP        -0.8617
     12 O3A        -1.3743    5.4401    2.1925 O.3       1 ACP        -0.8283
     13 O5'         0.0181    3.5132    1.4596 O.3       1 ACP        -0.5783
     14 C5'        -0.8811    2.4285    1.6206 C.3       1 ACP         0.1980
     15 C4'        -0.1994    1.3333    2.4288 C.3       1 ACP         0.0815
     16 O4'        -1.1285    0.2356    2.5840 O.3       1 ACP        -0.4127
     17 C3'         1.0324    0.7610    1.7344 C.3       1 ACP         0.0890
     18 O3'         1.9175    0.2377    2.7247 O.3       1 ACP        -0.6221
     19 C2'         0.4468   -0.3802    0.9263 C.3       1 ACP         0.1067
     20 O2'         1.3993   -1.3703    0.5961 O.3       1 ACP        -0.6053
     21 C1'        -0.6159   -0.9100    1.8769 C.3       1 ACP         0.4223
     22 N9         -1.7127   -1.6108    1.2130 N.pl3     1 ACP        -0.6834
     23 C8         -2.8641   -1.0399    0.7392 C.ar      1 ACP         0.5614
     24 N7         -3.6659   -1.9257    0.1858 N.2       1 ACP        -0.5751
     25 C5         -3.0053   -3.1223    0.3069 C.ar      1 ACP        -0.2117
     26 C6         -3.3321   -4.4178   -0.0813 C.ar      1 ACP         0.7177
     27 N6         -4.5476   -4.6866   -0.7335 N.pl3     1 ACP        -0.9401
     28 N1         -2.4608   -5.4225    0.1773 N.ar      1 ACP        -0.8008
     29 C2         -1.3053   -5.1020    0.8081 C.ar      1 ACP         0.6565
     30 N3         -0.8788   -3.8921    1.2315 N.ar      1 ACP        -0.7061
     31 C4         -1.7870   -2.9477    0.9438 C.ar      1 ACP         0.5715
     32 HOG3        1.1369   10.3314    1.9013 H         1 ACP         0.4226
     33 HOB2       -4.0457    6.2123    1.4623 H         1 ACP         0.4482
     34 H3B1       -1.0642    8.1232   -0.1989 H         1 ACP         0.1012
     35 H3B2        0.2350    7.1545    0.4913 H         1 ACP         0.1012
     36 H5'1       -1.7769    2.7851    2.1387 H         1 ACP         0.0481
     37 H5'2       -1.1653    2.0543    0.6320 H         1 ACP         0.0481
     38 H4'         0.0403    1.7078    3.4343 H         1 ACP         0.0904
     39 H3'         1.5906    1.4859    1.1353 H         1 ACP         0.0809
     40 HO3'        2.1521    0.9800    3.3017 H         1 ACP         0.4528
     41 H2'        -0.0017    0.0018    0.0005 H         1 ACP         0.0594
     42 HO2'        2.0953   -0.9375    0.0709 H         1 ACP         0.4344
     43 H1'        -0.1998   -1.6319    2.6178 H         1 ACP         0.1127
     44 H8         -3.0609    0.0200    0.8250 H         1 ACP         0.1050
     45 HN61       -5.2046   -3.9433   -0.8775 H         1 ACP         0.4211
     46 HN62       -4.7849   -5.6332   -0.9625 H         1 ACP         0.4211
     47 H2         -0.6318   -5.9307    0.9993 H         1 ACP         0.0375
@<TRIPOS>BOND
     1    1    2 2
     2    1    3 1
     3    1    4 1
     4    1    8 1
     5    4   32 1
     6    5    6 2
     7    5    7 1
     8    5    8 1
     9    5   12 1
    10    7   33 1
    11    8   34 1
    12    8   35 1
    13    9   10 2
    14    9   11 1
    15    9   12 1
    16    9   13 1
    17   13   14 1
    18   14   15 1
    19   14   36 1
    20   14   37 1
    21   15   16 1
    22   15   17 1
    23   15   38 1
    24   16   21 1
    25   17   18 1
    26   17   19 1
    27   17   39 1
    28   18   40 1
    29   19   20 1
    30   19   21 1
    31   19   41 1
    32   20   42 1
    33   21   22 1
    34   21   43 1
    35   22   23 ar
    36   22   31 ar
    37   23   24 ar
    38   23   44 1
    39   24   25 ar
    40   25   26 ar
    41   25   31 ar
    42   26   27 1
    43   26   28 ar
    44   27   45 1
    45   27   46 1
    46   28   29 ar
    47   29   30 ar
    48   29   47 1
    49   30   31 ar
@<TRIPOS>SUBSTRUCTURE
     1 ACP         1 GROUP 0 A     ****
@<TRIPOS>MOLECULE
[[[5-(6-aminopurin-9-yl)-3,4-dihydroxy-tetrahydrofuran-2-yl]methoxy-oxido-phosphoryl]oxy-hydroxy-phosphoryl]methyl-hydroxy-phosphinate
   47    49     1     0     0
SMALL
USER_CHARGES

@<TRIPOS>ATOM
      1 PG         -5.5058   -0.6671    2.0586 P.3       1 ACP         1.3516
      2 O1G        -4.2408   -0.4555    2.8575 O.co2     1 ACP        -0.8379
      3 O2G        -5.8977   -2.0204    1.5120 O.co2     1 ACP        -0.8379
      4 O3G        -6.7691   -0.0218    2.8633 O.3       1 ACP        -0.7980
      5 PB         -5.3823    2.3070    0.8364 P.3       1 ACP         1.7688
      6 O1B        -6.5297    2.9107    1.5895 O.2       1 ACP        -0.9167
      7 O2B        -5.1986    2.8531   -0.6734 O.3       1 ACP        -0.8201
      8 C3B        -5.4627    0.5144    0.6369 C.3       1 ACP        -0.6097
      9 PA         -3.0801    3.8628    1.8538 P.3       1 ACP         1.5979
     10 O1A        -3.7975    4.5869    2.9722 O.co2     1 ACP        -0.8617
     11 O2A        -2.7276    4.5805    0.5692 O.co2     1 ACP        -0.8617
     12 O3A        -3.9225    2.5119    1.4945 O.3       1 ACP        -0.8283
     13 O5'        -1.7337    3.1724    2.4753 O.3       1 ACP        -0.5783
     14 C5'        -0.8811    2.4285    1.6206 C.3       1 ACP         0.1980
     15 C4'        -0.1994    1.3333    2.4288 C.3       1 ACP         0.0815
     16 O4'        -1.1285    0.2356    2.5840 O.3       1 ACP        -0.4127
     17 C3'         1.0324    0.7610    1.7344 C.3       1 ACP         0.0890
     18 O3'         1.9175    0.2377    2.7247 O.3       1 ACP        -0.6221
     19 C2'         0.4468   -0.3802    0.9263 C.3       1 ACP         0.1067
     20 O2'         1.3993   -1.3703    0.5961 O.3       1 ACP        -0.6053
     21 C1'        -0.6159   -0.9100    1.8769 C.3       1 ACP         0.4223
     22 N9         -1.7127   -1.6108    1.2130 N.pl3     1 ACP        -0.6834
     23 C8         -2.5476   -1.0844    0.2632 C.ar      1 ACP         0.5614
     24 N7         -3.4391   -1.9591   -0.1536 N.2       1 ACP        -0.5751
     25 C5         -3.1701   -3.1016    0.5574 C.ar      1 ACP        -0.2117
     26 C6         -3.7593   -4.3620    0.5656 C.ar      1 ACP         0.7177
     27 N6         -4.8512   -4.6493   -0.2712 N.pl3     1 ACP        -0.9401
     28 N1         -3.2659   -5.3144    1.3932 N.ar      1 ACP        -0.8008
     29 C2         -2.2122   -4.9785    2.1759 C.ar      1 ACP         0.6565
     30 N3         -1.5595   -3.7985    2.2572 N.ar      1 ACP        -0.7061
     31 C4         -2.0986   -2.9054    1.4140 C.ar      1 ACP         0.5715
     32 HOG3       -6.9773   -0.3638    3.7588 H         1 ACP         0.4226
     33 HOB2       -5.0369    3.8099   -0.8161 H         1 ACP         0.4482
     34 H3B1       -4.6107    0.2114    0.0177 H         1 ACP         0.1012
     35 H3B2       -6.3694    0.2977    0.0620 H         1 ACP         0.1012
     36 H5'1       -1.4802    1.9928    0.8147 H         1 ACP         0.0481
     37 H5'2       -0.1369    3.1042    1.1873 H         1 ACP         0.0481
     38 H4'         0.0403    1.7078    3.4343 H         1 ACP         0.0904
     39 H3'         1.5906    1.4859    1.1353 H         1 ACP         0.0809
     40 HO3'        2.1521    0.9800    3.3017 H         1 ACP         0.4528
     41 H2'        -0.0017    0.0018    0.0005 H         1 ACP         0.0594
     42 HO2'        0.9369   -2.0558    0.0825 H         1 ACP         0.4344
     43 H1'        -0.1998   -1.6319    2.6178 H         1 ACP         0.1127
     44 H8         -2.4576   -0.0639   -0.0831 H         1 ACP         0.1050
     45 HN61       -5.2371   -3.9234   -0.8448 H         1 ACP         0.4211
     46 HN62       -5.2909   -5.5485   -0.2160 H         1 ACP         0.4211
     47 H2         -1.8433   -5.7650    2.8259 H         1 ACP         0.0375
@<TRIPOS>BOND
     1    1    2 2
     2    1    3 1
     3    1    4 1
     4    1    8 1
     5    4   32 1
     6    5    6 2
     7    5    7 1
     8    5    8 1
     9    5   12 1
    10    7   33 1
    11    8   34 1
    12    8   35 1
    13    9   10 2
    14    9   11 1
    15    9   12 1
    16    9   13 1
    17   13   14 1
    18   14   15 1
    19   14   36 1
    20   14   37 1
    21   15   16 1
    22   15   17 1
    23   15   38 1
    24   16   21 1
    25   17   18 1
    26   17   19 1
    27   17   39 1
    28   18   40 1
    29   19   20 1
    30   19   21 1
    31   19   41 1
    32   20   42 1
    33   21   22 1
    34   21   43 1
    35   22   23 ar
    36   22   31 ar
    37   23   24 ar
    38   23   44 1
    39   24   25 ar
    40   25   26 ar
    41   25   31 ar
    42   26   27 1
    43   26   28 ar
    44   27   45 1
    45   27   46 1
    46   28   29 ar
    47   29   30 ar
    48   29   47 1
    49   30   31 ar
@<TRIPOS>SUBSTRUCTURE
     1 ACP         1 GROUP 0 A     ****
@<TRIPOS>MOLECULE
[[[5-(6-aminopurin-9-yl)-3,4-dihydroxy-tetrahydrofuran-2-yl]methoxy-oxido-phosphoryl]oxy-hydroxy-phosphoryl]methyl-hydroxy-phosphinate
   47    49     1     0     0
SMALL
USER_CHARGES

@<TRIPOS>ATOM
      1 PG         -5.3230   -0.7493   -5.0866 P.3       1 ACP         1.3516
      2 O1G        -5.1596    0.4686   -4.2073 O.co2     1 ACP        -0.8379
      3 O2G        -5.6913   -2.1042   -4.5277 O.co2     1 ACP        -0.8379
      4 O3G        -6.3135   -0.3897   -6.3315 O.3       1 ACP        -0.7980
      5 PB         -2.1423   -1.2017   -5.2684 P.3       1 ACP         1.7688
      6 O1B        -0.9965   -1.3433   -6.2251 O.2       1 ACP        -0.9167
      7 O2B        -2.3769   -2.4719   -4.2972 O.3       1 ACP        -0.8201
      8 C3B        -3.7537   -0.9517   -6.0435 C.3       1 ACP        -0.6097
      9 PA         -1.9759    1.6544   -4.5130 P.3       1 ACP         1.5979
     10 O1A        -3.2901    2.1043   -5.1133 O.co2     1 ACP        -0.8617
     11 O2A        -0.6640    1.9759   -5.1952 O.co2     1 ACP        -0.8617
     12 O3A        -2.0574    0.0461   -4.2477 O.3       1 ACP        -0.8283
     13 O5'        -1.9207    2.1716   -2.9622 O.3       1 ACP        -0.5783
     14 C5'        -0.7794    1.8744   -2.1748 C.3       1 ACP         0.1980
     15 C4'        -0.9699    2.4597   -0.7819 C.3       1 ACP         0.0815
     16 O4'        -2.1475    1.8640   -0.2014 O.3       1 ACP        -0.4127
     17 C3'         0.1697    2.1347    0.1695 C.3       1 ACP         0.0890
     18 O3'         0.1809    3.0982    1.2223 O.3       1 ACP        -0.6221
     19 C2'        -0.2543    0.7880    0.7187 C.3       1 ACP         0.1067
     20 O2'         0.3606    0.4944    1.9582 O.3       1 ACP        -0.6053
     21 C1'        -1.7682    0.9516    0.8548 C.3       1 ACP         0.4223
     22 N9         -2.5926   -0.2553    0.7436 N.pl3     1 ACP        -0.6834
     23 C8         -2.2879   -1.3752    0.0161 C.ar      1 ACP         0.5614
     24 N7         -3.2214   -2.2987    0.1123 N.2       1 ACP        -0.5751
     25 C5         -4.1722   -1.7531    0.9377 C.ar      1 ACP        -0.2117
     26 C6         -5.3870   -2.2342    1.4159 C.ar      1 ACP         0.7177
     27 N6         -5.8433   -3.5142    1.0574 N.pl3     1 ACP        -0.9401
     28 N1         -6.1289   -1.4512    2.2356 N.ar      1 ACP        -0.8008
     29 C2         -5.6370   -0.2275    2.5461 C.ar      1 ACP         0.6565
     30 N3         -4.4810    0.3469    2.1476 N.ar      1 ACP        -0.7061
     31 C4         -3.7996   -0.4810    1.3417 C.ar      1 ACP         0.5715
     32 HOG3       -7.2290   -0.0992   -6.1320 H         1 ACP         0.4226
     33 HOB2       -1.6561   -2.7457   -3.6909 H         1 ACP         0.4482
     34 H3B1       -3.9243   -1.7882   -6.7305 H         1 ACP         0.1012
     35 H3B2       -3.6767   -0.0460   -6.6546 H         1 ACP         0.1012
     36 H5'1       -0.6601    0.7877   -2.1202 H         1 ACP         0.0481
     37 H5'2        0.1042    2.3072   -2.6544 H         1 ACP         0.0481
     38 H4'        -1.1469    3.5409   -0.8522 H         1 ACP         0.0904
     39 H3'         1.1601    2.1310   -0.2934 H         1 ACP         0.0809
     40 HO3'        0.9173    2.8584    1.8048 H         1 ACP         0.4528
     41 H2'        -0.0024   -0.0091    0.0062 H         1 ACP         0.0594
     42 HO2'        0.0384   -0.3797    2.2403 H         1 ACP         0.4344
     43 H1'        -2.0584    1.4255    1.8301 H         1 ACP         0.1127
     44 H8         -1.3765   -1.4593   -0.5599 H         1 ACP         0.1050
     45 HN61       -5.3086   -4.0656    0.4134 H         1 ACP         0.4211
     46 HN62       -6.7426   -3.8233    1.3745 H         1 ACP         0.4211
     47 H2         -6.2570    0.3723    3.2040 H         1 ACP         0.0375
@<TRIPOS>BOND
     1    1    2 2
     2    1    3 1
     3    1    4 1
     4    1    8 1
     5    4   32 1
     6    5    6 2
     7    5    7 1
     8    5    8 1
     9    5   12 1
    10    7   33 1
    11    8   34 1
    12    8   35 1
    13    9   10 2
    14    9   11 1
    15    9   12 1
    16    9   13 1
    17   13   14 1
    18   14   15 1
    19   14   36 1
    20   14   37 1
    21   15   16 1
    22   15   17 1
    23   15   38 1
    24   16   21 1
    25   17   18 1
    26   17   19 1
    27   17   39 1
    28   18   40 1
    29   19   20 1
    30   19   21 1
    31   19   41 1
    32   20   42 1
    33   21   22 1
    34   21   43 1
    35   22   23 ar
    36   22   31 ar
    37   23   24 ar
    38   23   44 1
    39   24   25 ar
    40   25   26 ar
    41   25   31 ar
    42   26   27 1
    43   26   28 ar
    44   27   45 1
    45   27   46 1
    46   28   29 ar
    47   29   30 ar
    48   29   47 1
    49   30   31 ar
@<TRIPOS>SUBSTRUCTURE
     1 ACP         1 GROUP 0 A     ****
@<TRIPOS>MOLECULE
[[[5-(6-aminopurin-9-yl)-3,4-dihydroxy-tetrahydrofuran-2-yl]methoxy-oxido-phosphoryl]oxy-hydroxy-phosphoryl]methyl-hydroxy-phosphinate
   47    49     1     0     0
SMALL
USER_CHARGES

@<TRIPOS>ATOM
      1 PG          3.1553    1.4340   -2.0741 P.3       1 ACP         1.3516
      2 O1G         2.8047    1.2855   -0.6118 O.co2     1 ACP        -0.8379
      3 O2G         4.2963    2.3056   -2.5456 O.co2     1 ACP        -0.8379
      4 O3G         3.2864   -0.0433   -2.7526 O.3       1 ACP        -0.7980
      5 PB          0.7688    3.5363   -2.5632 P.3       1 ACP         1.7688
      6 O1B        -0.4504    3.8059   -3.3933 O.2       1 ACP        -0.9167
      7 O2B         1.9260    4.6592   -2.6719 O.3       1 ACP        -0.8201
      8 C3B         1.6280    1.9966   -2.9516 C.3       1 ACP        -0.6097
      9 PA         -0.0886    4.4447    0.1191 P.3       1 ACP         1.5979
     10 O1A        -1.5542    4.6559   -0.1924 O.co2     1 ACP        -0.8617
     11 O2A         0.8512    5.6231    0.2521 O.co2     1 ACP        -0.8617
     12 O3A         0.5222    3.3979   -0.9739 O.3       1 ACP        -0.8283
     13 O5'         0.0181    3.5132    1.4596 O.3       1 ACP        -0.5783
     14 C5'        -0.8811    2.4285    1.6206 C.3       1 ACP         0.1980
     15 C4'        -0.1994    1.3333    2.4288 C.3       1 ACP         0.0815
     16 O4'        -1.1285    0.2356    2.5840 O.3       1 ACP        -0.4127
     17 C3'         1.0324    0.7610    1.7344 C.3       1 ACP         0.0890
     18 O3'         1.9175    0.2377    2.7247 O.3       1 ACP        -0.6221
     19 C2'         0.4468   -0.3802    0.9263 C.3       1 ACP         0.1067
     20 O2'         1.3993   -1.3703    0.5961 O.3       1 ACP        -0.6053
     21 C1'        -0.6159   -0.9100    1.8769 C.3       1 ACP         0.4223
     22 N9         -1.7127   -1.6108    1.2130 N.pl3     1 ACP        -0.6834
     23 C8         -1.7712   -2.9546    0.9544 C.ar      1 ACP         0.5614
     24 N7         -2.8883   -3.2948    0.3462 N.2       1 ACP        -0.5751
     25 C5         -3.5834   -2.1202    0.2043 C.ar      1 ACP        -0.2117
     26 C6         -4.8225   -1.8251   -0.3554 C.ar      1 ACP         0.7177
     27 N6         -5.6154   -2.8395   -0.9189 N.pl3     1 ACP        -0.9401
     28 N1         -5.2589   -0.5425   -0.3507 N.ar      1 ACP        -0.8008
     29 C2         -4.4510    0.3913    0.2069 C.ar      1 ACP         0.6565
     30 N3         -3.2368    0.2296    0.7767 N.ar      1 ACP        -0.7061
     31 C4         -2.8684   -1.0596    0.7376 C.ar      1 ACP         0.5715
     32 HOG3        3.9566   -0.6643   -2.3954 H         1 ACP         0.4226
     33 HOB2        1.7188    5.5817   -2.4108 H         1 ACP         0.4482
     34 H3B1        1.8825    2.0189   -4.0173 H         1 ACP         0.1012
     35 H3B2        0.9065    1.1846   -2.8116 H         1 ACP         0.1012
     36 H5'1       -1.7769    2.7851    2.1387 H         1 ACP         0.0481
     37 H5'2       -1.1653    2.0543    0.6320 H         1 ACP         0.0481
     38 H4'         0.0403    1.7078    3.4343 H         1 ACP         0.0904
     39 H3'         1.5906    1.4859    1.1353 H         1 ACP         0.0809
     40 HO3'        2.6839   -0.1150    2.2479 H         1 ACP         0.4528
     41 H2'        -0.0017    0.0018    0.0005 H         1 ACP         0.0594
     42 HO2'        2.0953   -0.9375    0.0709 H         1 ACP         0.4344
     43 H1'        -0.1998   -1.6319    2.6178 H         1 ACP         0.1127
     44 H8         -0.9745   -3.6312    1.2318 H         1 ACP         0.1050
     45 HN61       -5.2619   -3.7766   -0.9586 H         1 ACP         0.4211
     46 HN62       -6.4834   -2.5990   -1.3590 H         1 ACP         0.4211
     47 H2         -4.8317    1.4071    0.1930 H         1 ACP         0.0375
@<TRIPOS>BOND
     1    1    2 2
     2    1    3 1
     3    1    4 1
     4    1    8 1
     5    4   32 1
     6    5    6 2
     7    5    7 1
     8    5    8 1
     9    5   12 1
    10    7   33 1
    11    8   34 1
    12    8   35 1
    13    9   10 2
    14    9   11 1
    15    9   12 1
    16    9   13 1
    17   13   14 1
    18   14   15 1
    19   14   36 1
    20   14   37 1
    21   15   16 1
    22   15   17 1
    23   15   38 1
    24   16   21 1
    25   17   18 1
    26   17   19 1
    27   17   39 1
    28   18   40 1
    29   19   20 1
    30   19   21 1
    31   19   41 1
    32   20   42 1
    33   21   22 1
    34   21   43 1
    35   22   23 ar
    36   22   31 ar
    37   23   24 ar
    38   23   44 1
    39   24   25 ar
    40   25   26 ar
    41   25   31 ar
    42   26   27 1
    43   26   28 ar
    44   27   45 1
    45   27   46 1
    46   28   29 ar
    47   29   30 ar
    48   29   47 1
    49   30   31 ar
@<TRIPOS>SUBSTRUCTURE
     1 ACP         1 GROUP 0 A     ****
@<TRIPOS>MOLECULE
[[[5-(6-aminopurin-9-yl)-3,4-dihydroxy-tetrahydrofuran-2-yl]methoxy-oxido-phosphoryl]oxy-hydroxy-phosphoryl]methyl-hydroxy-phosphinate
   47    49     1     0     0
SMALL
USER_CHARGES

@<TRIPOS>ATOM
      1 PG         -1.1570    3.0105   -2.9852 P.3       1 ACP         1.3516
      2 O1G        -1.6805    2.7022   -1.6016 O.co2     1 ACP        -0.8379
      3 O2G        -0.4359    1.9800   -3.8230 O.co2     1 ACP        -0.8379
      4 O3G        -2.3414    3.6966   -3.8720 O.3       1 ACP        -0.7980
      5 PB          1.4361    4.5088   -1.8083 P.3       1 ACP         1.7688
      6 O1B         2.1965    5.8008   -1.8299 O.2       1 ACP        -0.9167
      7 O2B         2.2733    3.2197   -2.3074 O.3       1 ACP        -0.8201
      8 C3B        -0.0466    4.4817   -2.8381 C.3       1 ACP        -0.6097
      9 PA         -0.1841    4.7791    0.6529 P.3       1 ACP         1.5979
     10 O1A        -1.5494    4.8014    0.0006 O.co2     1 ACP        -0.8617
     11 O2A         0.4426    6.0522    1.1782 O.co2     1 ACP        -0.8617
     12 O3A         0.8608    4.0543   -0.3700 O.3       1 ACP        -0.8283
     13 O5'        -0.2060    3.6558    1.8418 O.3       1 ACP        -0.5783
     14 C5'        -0.8811    2.4285    1.6206 C.3       1 ACP         0.1980
     15 C4'        -0.1994    1.3333    2.4288 C.3       1 ACP         0.0815
     16 O4'        -1.1285    0.2356    2.5840 O.3       1 ACP        -0.4127
     17 C3'         1.0324    0.7610    1.7344 C.3       1 ACP         0.0890
     18 O3'         1.9175    0.2377    2.7247 O.3       1 ACP        -0.6221
     19 C2'         0.4468   -0.3802    0.9263 C.3       1 ACP         0.1067
     20 O2'         1.3993   -1.3703    0.5961 O.3       1 ACP        -0.6053
     21 C1'        -0.6159   -0.9100    1.8769 C.3       1 ACP         0.4223
     22 N9         -1.7127   -1.6108    1.2130 N.pl3     1 ACP        -0.6834
     23 C8         -1.7712   -2.9546    0.9544 C.ar      1 ACP         0.5614
     24 N7         -2.8883   -3.2948    0.3462 N.2       1 ACP        -0.5751
     25 C5         -3.5834   -2.1202    0.2043 C.ar      1 ACP        -0.2117
     26 C6         -4.8225   -1.8251   -0.3554 C.ar      1 ACP         0.7177
     27 N6         -5.6154   -2.8395   -0.9189 N.pl3     1 ACP        -0.9401
     28 N1         -5.2589   -0.5425   -0.3507 N.ar      1 ACP        -0.8008
     29 C2         -4.4510    0.3913    0.2069 C.ar      1 ACP         0.6565
     30 N3         -3.2368    0.2296    0.7767 N.ar      1 ACP        -0.7061
     31 C4         -2.8684   -1.0596    0.7376 C.ar      1 ACP         0.5715
     32 HOG3       -3.1668    3.1885   -4.0231 H         1 ACP         0.4226
     33 HOB2        3.0895    2.9677   -1.8253 H         1 ACP         0.4482
     34 H3B1        0.2553    4.7360   -3.8604 H         1 ACP         0.1012
     35 H3B2       -0.6950    5.2908   -2.4852 H         1 ACP         0.1012
     36 H5'1       -1.9255    2.5382    1.9294 H         1 ACP         0.0481
     37 H5'2       -0.8473    2.1933    0.5521 H         1 ACP         0.0481
     38 H4'         0.0403    1.7078    3.4343 H         1 ACP         0.0904
     39 H3'         1.5906    1.4859    1.1353 H         1 ACP         0.0809
     40 HO3'        2.6839   -0.1150    2.2479 H         1 ACP         0.4528
     41 H2'        -0.0017    0.0018    0.0005 H         1 ACP         0.0594
     42 HO2'        2.0953   -0.9375    0.0709 H         1 ACP         0.4344
     43 H1'        -0.1998   -1.6319    2.6178 H         1 ACP         0.1127
     44 H8         -0.9745   -3.6312    1.2318 H         1 ACP         0.1050
     45 HN61       -5.2619   -3.7766   -0.9586 H         1 ACP         0.4211
     46 HN62       -6.4834   -2.5990   -1.3590 H         1 ACP         0.4211
     47 H2         -4.8317    1.4071    0.1930 H         1 ACP         0.0375
@<TRIPOS>BOND
     1    1    2 2
     2    1    3 1
     3    1    4 1
     4    1    8 1
     5    4   32 1
     6    5    6 2
     7    5    7 1
     8    5    8 1
     9    5   12 1
    10    7   33 1
    11    8   34 1
    12    8   35 1
    13    9   10 2
    14    9   11 1
    15    9   12 1
    16    9   13 1
    17   13   14 1
    18   14   15 1
    19   14   36 1
    20   14   37 1
    21   15   16 1
    22   15   17 1
    23   15   38 1
    24   16   21 1
    25   17   18 1
    26   17   19 1
    27   17   39 1
    28   18   40 1
    29   19   20 1
    30   19   21 1
    31   19   41 1
    32   20   42 1
    33   21   22 1
    34   21   43 1
    35   22   23 ar
    36   22   31 ar
    37   23   24 ar
    38   23   44 1
    39   24   25 ar
    40   25   26 ar
    41   25   31 ar
    42   26   27 1
    43   26   28 ar
    44   27   45 1
    45   27   46 1
    46   28   29 ar
    47   29   30 ar
    48   29   47 1
    49   30   31 ar
@<TRIPOS>SUBSTRUCTURE
     1 ACP         1 GROUP 0 A     ****
@<TRIPOS>MOLECULE
[[[5-(6-aminopurin-9-yl)-3,4-dihydroxy-tetrahydrofuran-2-yl]methoxy-oxido-phosphoryl]oxy-hydroxy-phosphoryl]methyl-hydroxy-phosphinate
   47    49     1     0     0
SMALL
USER_CHARGES

@<TRIPOS>ATOM
      1 PG          8.3297    0.2133    0.9641 P.3       1 ACP         1.3516
      2 O1G         9.2602   -0.6584    0.1531 O.co2     1 ACP        -0.8379
      3 O2G         6.8521    0.3139    0.6636 O.co2     1 ACP        -0.8379
      4 O3G         8.5394   -0.1002    2.5509 O.3       1 ACP        -0.7980
      5 PB          8.2430    3.3256    1.7767 P.3       1 ACP         1.7688
      6 O1B         8.9648    4.6315    1.6296 O.2       1 ACP        -0.9167
      7 O2B         8.0731    2.8115    3.2994 O.3       1 ACP        -0.8201
      8 C3B         9.0196    1.9286    0.9370 C.3       1 ACP        -0.6097
      9 PA          6.1595    3.5245   -0.3149 P.3       1 ACP         1.5979
     10 O1A         6.6440    2.3951   -1.1979 O.co2     1 ACP        -0.8617
     11 O2A         6.3928    4.9672   -0.7072 O.co2     1 ACP        -0.8617
     12 O3A         6.7392    3.2823    1.1914 O.3       1 ACP        -0.8283
     13 O5'         4.5669    3.2940   -0.0211 O.3       1 ACP        -0.5783
     14 C5'         4.0922    1.9801    0.2227 C.3       1 ACP         0.1980
     15 C4'         2.5944    2.0310    0.4653 C.3       1 ACP         0.0815
     16 O4'         1.9327    2.5740   -0.6889 O.3       1 ACP        -0.4127
     17 C3'         1.9685    0.6634    0.6767 C.3       1 ACP         0.0890
     18 O3'         2.1425    0.1975    1.9977 O.3       1 ACP        -0.6221
     19 C2'         0.5176    0.9128    0.3099 C.3       1 ACP         0.1067
     20 O2'        -0.2103    1.4454    1.4152 O.3       1 ACP        -0.6053
     21 C1'         0.6219    1.9765   -0.7844 C.3       1 ACP         0.4223
     22 N9          0.4237    1.4496   -2.1357 N.pl3     1 ACP        -0.6834
     23 C8          1.4026    0.9717   -2.9660 C.ar      1 ACP         0.5614
     24 N7          0.9183    0.5619   -4.1197 N.2       1 ACP        -0.5751
     25 C5         -0.4330    0.7845   -4.0331 C.ar      1 ACP        -0.2117
     26 C6         -1.4794    0.5615   -4.9225 C.ar      1 ACP         0.7177
     27 N6         -1.2378    0.0044   -6.1899 N.pl3     1 ACP        -0.9401
     28 N1         -2.7406    0.8885   -4.5512 N.ar      1 ACP        -0.8008
     29 C2         -2.9113    1.4216   -3.3172 C.ar      1 ACP         0.6565
     30 N3         -1.9824    1.6843   -2.3721 N.ar      1 ACP        -0.7061
     31 C4         -0.7613    1.3370   -2.8054 C.ar      1 ACP         0.5715
     32 HOG3        8.3744   -1.0118    2.8734 H         1 ACP         0.4226
     33 HOB2        7.5834    3.3720    3.9382 H         1 ACP         0.4482
     34 H3B1       10.0469    1.8473    1.3100 H         1 ACP         0.1012
     35 H3B2        9.0842    2.1903   -0.1245 H         1 ACP         0.1012
     36 H5'1        4.3180    1.3550   -0.6470 H         1 ACP         0.0481
     37 H5'2        4.6085    1.5739    1.0983 H         1 ACP         0.0481
     38 H4'         2.3751    2.7029    1.3156 H         1 ACP         0.0904
     39 H3'         2.4336   -0.1217   -0.0015 H         1 ACP         0.0809
     40 HO3'        3.0987    0.1465    2.1461 H         1 ACP         0.4528
     41 H2'         0.0316    0.0155   -0.0339 H         1 ACP         0.0594
     42 HO2'       -1.1270    1.5823    1.1180 H         1 ACP         0.4344
     43 H1'        -0.1474    2.7798   -0.6651 H         1 ACP         0.1127
     44 H8          2.4442    0.9470   -2.6763 H         1 ACP         0.1050
     45 HN61       -0.2955   -0.1901   -6.4713 H         1 ACP         0.4211
     46 HN62       -1.9987   -0.1045   -6.8334 H         1 ACP         0.4211
     47 H2         -3.9335    1.6716   -3.0534 H         1 ACP         0.0375
@<TRIPOS>BOND
     1    1    2 2
     2    1    3 1
     3    1    4 1
     4    1    8 1
     5    4   32 1
     6    5    6 2
     7    5    7 1
     8    5    8 1
     9    5   12 1
    10    7   33 1
    11    8   34 1
    12    8   35 1
    13    9   10 2
    14    9   11 1
    15    9   12 1
    16    9   13 1
    17   13   14 1
    18   14   15 1
    19   14   36 1
    20   14   37 1
    21   15   16 1
    22   15   17 1
    23   15   38 1
    24   16   21 1
    25   17   18 1
    26   17   19 1
    27   17   39 1
    28   18   40 1
    29   19   20 1
    30   19   21 1
    31   19   41 1
    32   20   42 1
    33   21   22 1
    34   21   43 1
    35   22   23 ar
    36   22   31 ar
    37   23   24 ar
    38   23   44 1
    39   24   25 ar
    40   25   26 ar
    41   25   31 ar
    42   26   27 1
    43   26   28 ar
    44   27   45 1
    45   27   46 1
    46   28   29 ar
    47   29   30 ar
    48   29   47 1
    49   30   31 ar
@<TRIPOS>SUBSTRUCTURE
     1 ACP         1 GROUP 0 A     ****
@<TRIPOS>MOLECULE
[[[5-(6-aminopurin-9-yl)-3,4-dihydroxy-tetrahydrofuran-2-yl]methoxy-oxido-phosphoryl]oxy-hydroxy-phosphoryl]methyl-hydroxy-phosphinate
   47    49     1     0     0
SMALL
USER_CHARGES

@<TRIPOS>ATOM
      1 PG          7.9889    3.3953    4.5610 P.3       1 ACP         1.3516
      2 O1G         8.8663    2.8710    5.6739 O.co2     1 ACP        -0.8379
      3 O2G         6.5643    2.9289    4.3692 O.co2     1 ACP        -0.8379
      4 O3G         8.0292    5.0257    4.5618 O.3       1 ACP        -0.7980
      5 PB          8.2238    3.5724    1.3567 P.3       1 ACP         1.7688
      6 O1B         9.1115    3.2495    0.1923 O.2       1 ACP        -0.9167
      7 O2B         7.8691    5.1399    1.5259 O.3       1 ACP        -0.8201
      8 C3B         8.8862    3.1064    2.9703 C.3       1 ACP        -0.6097
      9 PA          6.3567    1.2769    1.3738 P.3       1 ACP         1.5979
     10 O1A         6.7670    0.6862    2.7051 O.co2     1 ACP        -0.8617
     11 O2A         6.7982    0.6375    0.0753 O.co2     1 ACP        -0.8617
     12 O3A         6.7784    2.8535    1.3607 O.3       1 ACP        -0.8283
     13 O5'         4.7294    1.4426    1.3699 O.3       1 ACP        -0.5783
     14 C5'         4.0922    1.9801    0.2227 C.3       1 ACP         0.1980
     15 C4'         2.5944    2.0310    0.4653 C.3       1 ACP         0.0815
     16 O4'         1.9327    2.5740   -0.6889 O.3       1 ACP        -0.4127
     17 C3'         1.9685    0.6634    0.6767 C.3       1 ACP         0.0890
     18 O3'         2.1425    0.1975    1.9977 O.3       1 ACP        -0.6221
     19 C2'         0.5176    0.9128    0.3099 C.3       1 ACP         0.1067
     20 O2'        -0.2103    1.4454    1.4152 O.3       1 ACP        -0.6053
     21 C1'         0.6219    1.9765   -0.7844 C.3       1 ACP         0.4223
     22 N9          0.4237    1.4496   -2.1357 N.pl3     1 ACP        -0.6834
     23 C8         -0.7736    1.3475   -2.7932 C.ar      1 ACP         0.5614
     24 N7         -0.6356    0.8373   -3.9991 N.2       1 ACP        -0.5751
     25 C5          0.7095    0.5981   -4.1281 C.ar      1 ACP        -0.2117
     26 C6          1.4733    0.0704   -5.1643 C.ar      1 ACP         0.7177
     27 N6          0.8693   -0.3355   -6.3666 N.pl3     1 ACP        -0.9401
     28 N1          2.8130   -0.0482   -5.0009 N.ar      1 ACP        -0.8008
     29 C2          3.3380    0.3602   -3.8204 C.ar      1 ACP         0.6565
     30 N3          2.7052    0.8841   -2.7480 N.ar      1 ACP        -0.7061
     31 C4          1.3867    0.9726   -2.9785 C.ar      1 ACP         0.5715
     32 HOG3        7.7269    5.5008    5.3650 H         1 ACP         0.4226
     33 HOB2        7.4027    5.6028    0.7976 H         1 ACP         0.4482
     34 H3B1        9.8619    3.5930    3.0809 H         1 ACP         0.1012
     35 H3B2        9.0683    2.0268    2.9407 H         1 ACP         0.1012
     36 H5'1        4.4844    2.9853    0.0382 H         1 ACP         0.0481
     37 H5'2        4.3192    1.3445   -0.6390 H         1 ACP         0.0481
     38 H4'         2.3751    2.7029    1.3156 H         1 ACP         0.0904
     39 H3'         2.4336   -0.1217   -0.0015 H         1 ACP         0.0809
     40 HO3'        3.0987    0.1465    2.1461 H         1 ACP         0.4528
     41 H2'         0.0316    0.0155   -0.0339 H         1 ACP         0.0594
     42 HO2'       -0.1608    0.7921    2.1351 H         1 ACP         0.4344
     43 H1'        -0.1474    2.7798   -0.6651 H         1 ACP         0.1127
     44 H8         -1.7070    1.6599   -2.3451 H         1 ACP         0.1050
     45 HN61       -0.1277   -0.2866   -6.4583 H         1 ACP         0.4211
     46 HN62        1.4308   -0.7566   -7.0823 H         1 ACP         0.4211
     47 H2          4.4130    0.2505   -3.7241 H         1 ACP         0.0375
@<TRIPOS>BOND
     1    1    2 2
     2    1    3 1
     3    1    4 1
     4    1    8 1
     5    4   32 1
     6    5    6 2
     7    5    7 1
     8    5    8 1
     9    5   12 1
    10    7   33 1
    11    8   34 1
    12    8   35 1
    13    9   10 2
    14    9   11 1
    15    9   12 1
    16    9   13 1
    17   13   14 1
    18   14   15 1
    19   14   36 1
    20   14   37 1
    21   15   16 1
    22   15   17 1
    23   15   38 1
    24   16   21 1
    25   17   18 1
    26   17   19 1
    27   17   39 1
    28   18   40 1
    29   19   20 1
    30   19   21 1
    31   19   41 1
    32   20   42 1
    33   21   22 1
    34   21   43 1
    35   22   23 ar
    36   22   31 ar
    37   23   24 ar
    38   23   44 1
    39   24   25 ar
    40   25   26 ar
    41   25   31 ar
    42   26   27 1
    43   26   28 ar
    44   27   45 1
    45   27   46 1
    46   28   29 ar
    47   29   30 ar
    48   29   47 1
    49   30   31 ar
@<TRIPOS>SUBSTRUCTURE
     1 ACP         1 GROUP 0 A     ****
@<TRIPOS>MOLECULE
[[[5-(6-aminopurin-9-yl)-3,4-dihydroxy-tetrahydrofuran-2-yl]methoxy-oxido-phosphoryl]oxy-hydroxy-phosphoryl]methyl-hydroxy-phosphinate
   47    49     1     0     0
SMALL
USER_CHARGES

@<TRIPOS>ATOM
      1 PG          8.3385    3.8765    0.2505 P.3       1 ACP         1.3516
      2 O1G         9.5639    3.6941    1.1157 O.co2     1 ACP        -0.8379
      3 O2G         6.9635    3.4359    0.6965 O.co2     1 ACP        -0.8379
      4 O3G         8.2694    5.4198   -0.2724 O.3       1 ACP        -0.7980
      5 PB          7.5015    3.0187   -2.7357 P.3       1 ACP         1.7688
      6 O1B         7.9794    2.3051   -3.9648 O.2       1 ACP        -0.9167
      7 O2B         7.1191    4.5730   -2.9585 O.3       1 ACP        -0.8201
      8 C3B         8.6840    3.0596   -1.3719 C.3       1 ACP        -0.6097
      9 PA          5.8980    0.9306   -1.3851 P.3       1 ACP         1.5979
     10 O1A         6.7587    0.7749   -0.1503 O.co2     1 ACP        -0.8617
     11 O2A         5.9322   -0.1059   -2.4870 O.co2     1 ACP        -0.8617
     12 O3A         6.1874    2.4018   -2.0295 O.3       1 ACP        -0.8283
     13 O5'         4.3515    1.1573   -0.9028 O.3       1 ACP        -0.5783
     14 C5'         4.0922    1.9801    0.2227 C.3       1 ACP         0.1980
     15 C4'         2.5944    2.0310    0.4653 C.3       1 ACP         0.0815
     16 O4'         1.9327    2.5740   -0.6889 O.3       1 ACP        -0.4127
     17 C3'         1.9685    0.6634    0.6767 C.3       1 ACP         0.0890
     18 O3'         2.1425    0.1975    1.9977 O.3       1 ACP        -0.6221
     19 C2'         0.5176    0.9128    0.3099 C.3       1 ACP         0.1067
     20 O2'        -0.2103    1.4454    1.4152 O.3       1 ACP        -0.6053
     21 C1'         0.6219    1.9765   -0.7844 C.3       1 ACP         0.4223
     22 N9          0.4237    1.4496   -2.1357 N.pl3     1 ACP        -0.6834
     23 C8          1.4026    0.9717   -2.9660 C.ar      1 ACP         0.5614
     24 N7          0.9183    0.5619   -4.1197 N.2       1 ACP        -0.5751
     25 C5         -0.4330    0.7845   -4.0331 C.ar      1 ACP        -0.2117
     26 C6         -1.4794    0.5615   -4.9225 C.ar      1 ACP         0.7177
     27 N6         -1.2378    0.0044   -6.1899 N.pl3     1 ACP        -0.9401
     28 N1         -2.7406    0.8885   -4.5512 N.ar      1 ACP        -0.8008
     29 C2         -2.9113    1.4216   -3.3172 C.ar      1 ACP         0.6565
     30 N3         -1.9824    1.6843   -2.3721 N.ar      1 ACP        -0.7061
     31 C4         -0.7613    1.3370   -2.8054 C.ar      1 ACP         0.5715
     32 HOG3        8.2156    6.1375    0.3940 H         1 ACP         0.4226
     33 HOB2        6.4110    4.8010   -3.5978 H         1 ACP         0.4482
     34 H3B1        9.6080    3.5131   -1.7481 H         1 ACP         0.1012
     35 H3B2        8.9171    2.0194   -1.1205 H         1 ACP         0.1012
     36 H5'1        4.6070    1.5616    1.0933 H         1 ACP         0.0481
     37 H5'2        4.4825    2.9835    0.0252 H         1 ACP         0.0481
     38 H4'         2.3751    2.7029    1.3156 H         1 ACP         0.0904
     39 H3'         2.4336   -0.1217   -0.0015 H         1 ACP         0.0809
     40 HO3'        1.7160   -0.6716    2.0397 H         1 ACP         0.4528
     41 H2'         0.0316    0.0155   -0.0339 H         1 ACP         0.0594
     42 HO2'       -0.1608    0.7921    2.1351 H         1 ACP         0.4344
     43 H1'        -0.1474    2.7798   -0.6651 H         1 ACP         0.1127
     44 H8          2.4442    0.9470   -2.6763 H         1 ACP         0.1050
     45 HN61       -0.2955   -0.1901   -6.4713 H         1 ACP         0.4211
     46 HN62       -1.9987   -0.1045   -6.8334 H         1 ACP         0.4211
     47 H2         -3.9335    1.6716   -3.0534 H         1 ACP         0.0375
@<TRIPOS>BOND
     1    1    2 2
     2    1    3 1
     3    1    4 1
     4    1    8 1
     5    4   32 1
     6    5    6 2
     7    5    7 1
     8    5    8 1
     9    5   12 1
    10    7   33 1
    11    8   34 1
    12    8   35 1
    13    9   10 2
    14    9   11 1
    15    9   12 1
    16    9   13 1
    17   13   14 1
    18   14   15 1
    19   14   36 1
    20   14   37 1
    21   15   16 1
    22   15   17 1
    23   15   38 1
    24   16   21 1
    25   17   18 1
    26   17   19 1
    27   17   39 1
    28   18   40 1
    29   19   20 1
    30   19   21 1
    31   19   41 1
    32   20   42 1
    33   21   22 1
    34   21   43 1
    35   22   23 ar
    36   22   31 ar
    37   23   24 ar
    38   23   44 1
    39   24   25 ar
    40   25   26 ar
    41   25   31 ar
    42   26   27 1
    43   26   28 ar
    44   27   45 1
    45   27   46 1
    46   28   29 ar
    47   29   30 ar
    48   29   47 1
    49   30   31 ar
@<TRIPOS>SUBSTRUCTURE
     1 ACP         1 GROUP 0 A     ****
@<TRIPOS>MOLECULE
[[[5-(6-aminopurin-9-yl)-3,4-dihydroxy-tetrahydrofuran-2-yl]methoxy-oxido-phosphoryl]oxy-hydroxy-phosphoryl]methyl-hydroxy-phosphinate
   47    49     1     0     0
SMALL
USER_CHARGES

@<TRIPOS>ATOM
      1 PG         -1.8375    8.3378    2.0354 P.3       1 ACP         1.3516
      2 O1G        -0.9988    7.3219    2.7755 O.co2     1 ACP        -0.8379
      3 O2G        -3.2432    8.6895    2.4644 O.co2     1 ACP        -0.8379
      4 O3G        -0.9751    9.7070    1.8316 O.3       1 ACP        -0.7980
      5 PB         -2.5995    6.2208   -0.2650 P.3       1 ACP         1.7688
      6 O1B        -2.5664    5.9834   -1.7451 O.2       1 ACP        -0.9167
      7 O2B        -4.0755    6.2015    0.3930 O.3       1 ACP        -0.8201
      8 C3B        -1.9142    7.8043    0.2667 C.3       1 ACP        -0.6097
      9 PA         -0.1841    4.7791    0.6529 P.3       1 ACP         1.5979
     10 O1A         0.5954    5.9768    1.1506 O.co2     1 ACP        -0.8617
     11 O2A         0.1742    4.1138   -0.6581 O.co2     1 ACP        -0.8617
     12 O3A        -1.7686    5.1698    0.6355 O.3       1 ACP        -0.8283
     13 O5'        -0.2060    3.6558    1.8418 O.3       1 ACP        -0.5783
     14 C5'        -0.8811    2.4285    1.6206 C.3       1 ACP         0.1980
     15 C4'        -0.1994    1.3333    2.4288 C.3       1 ACP         0.0815
     16 O4'        -1.1285    0.2356    2.5840 O.3       1 ACP        -0.4127
     17 C3'         1.0324    0.7610    1.7344 C.3       1 ACP         0.0890
     18 O3'         1.9175    0.2377    2.7247 O.3       1 ACP        -0.6221
     19 C2'         0.4468   -0.3802    0.9263 C.3       1 ACP         0.1067
     20 O2'         1.3993   -1.3703    0.5961 O.3       1 ACP        -0.6053
     21 C1'        -0.6159   -0.9100    1.8769 C.3       1 ACP         0.4223
     22 N9         -1.7127   -1.6108    1.2130 N.pl3     1 ACP        -0.6834
     23 C8         -2.8641   -1.0399    0.7392 C.ar      1 ACP         0.5614
     24 N7         -3.6659   -1.9257    0.1858 N.2       1 ACP        -0.5751
     25 C5         -3.0053   -3.1223    0.3069 C.ar      1 ACP        -0.2117
     26 C6         -3.3321   -4.4178   -0.0813 C.ar      1 ACP         0.7177
     27 N6         -4.5476   -4.6866   -0.7335 N.pl3     1 ACP        -0.9401
     28 N1         -2.4608   -5.4225    0.1773 N.ar      1 ACP        -0.8008
     29 C2         -1.3053   -5.1020    0.8081 C.ar      1 ACP         0.6565
     30 N3         -0.8788   -3.8921    1.2315 N.ar      1 ACP        -0.7061
     31 C4         -1.7870   -2.9477    0.9438 C.ar      1 ACP         0.5715
     32 HOG3       -0.6528   10.1798    2.6284 H         1 ACP         0.4226
     33 HOB2       -4.6178    5.3876    0.3192 H         1 ACP         0.4482
     34 H3B1       -2.4562    8.5950   -0.2644 H         1 ACP         0.1012
     35 H3B2       -0.8768    7.8366   -0.0833 H         1 ACP         0.1012
     36 H5'1       -1.9255    2.5382    1.9294 H         1 ACP         0.0481
     37 H5'2       -0.8473    2.1933    0.5521 H         1 ACP         0.0481
     38 H4'         0.0403    1.7078    3.4343 H         1 ACP         0.0904
     39 H3'         1.5906    1.4859    1.1353 H         1 ACP         0.0809
     40 HO3'        2.6839   -0.1150    2.2479 H         1 ACP         0.4528
     41 H2'        -0.0017    0.0018    0.0005 H         1 ACP         0.0594
     42 HO2'        0.9369   -2.0558    0.0825 H         1 ACP         0.4344
     43 H1'        -0.1998   -1.6319    2.6178 H         1 ACP         0.1127
     44 H8         -3.0609    0.0200    0.8250 H         1 ACP         0.1050
     45 HN61       -5.2046   -3.9433   -0.8775 H         1 ACP         0.4211
     46 HN62       -4.7849   -5.6332   -0.9625 H         1 ACP         0.4211
     47 H2         -0.6318   -5.9307    0.9993 H         1 ACP         0.0375
@<TRIPOS>BOND
     1    1    2 2
     2    1    3 1
     3    1    4 1
     4    1    8 1
     5    4   32 1
     6    5    6 2
     7    5    7 1
     8    5    8 1
     9    5   12 1
    10    7   33 1
    11    8   34 1
    12    8   35 1
    13    9   10 2
    14    9   11 1
    15    9   12 1
    16    9   13 1
    17   13   14 1
    18   14   15 1
    19   14   36 1
    20   14   37 1
    21   15   16 1
    22   15   17 1
    23   15   38 1
    24   16   21 1
    25   17   18 1
    26   17   19 1
    27   17   39 1
    28   18   40 1
    29   19   20 1
    30   19   21 1
    31   19   41 1
    32   20   42 1
    33   21   22 1
    34   21   43 1
    35   22   23 ar
    36   22   31 ar
    37   23   24 ar
    38   23   44 1
    39   24   25 ar
    40   25   26 ar
    41   25   31 ar
    42   26   27 1
    43   26   28 ar
    44   27   45 1
    45   27   46 1
    46   28   29 ar
    47   29   30 ar
    48   29   47 1
    49   30   31 ar
@<TRIPOS>SUBSTRUCTURE
     1 ACP         1 GROUP 0 A     ****
@<TRIPOS>MOLECULE
[[[5-(6-aminopurin-9-yl)-3,4-dihydroxy-tetrahydrofuran-2-yl]methoxy-oxido-phosphoryl]oxy-hydroxy-phosphoryl]methyl-hydroxy-phosphinate
   47    49     1     0     0
SMALL
USER_CHARGES

@<TRIPOS>ATOM
      1 PG          5.9104    1.1957   -4.1157 P.3       1 ACP         1.3516
      2 O1G         5.4640    1.1052   -5.5565 O.co2     1 ACP        -0.8379
      3 O2G         4.9355    1.1251   -2.9632 O.co2     1 ACP        -0.8379
      4 O3G         7.1291    0.1426   -3.8591 O.3       1 ACP        -0.7980
      5 PB          7.6096    3.3046   -2.3782 P.3       1 ACP         1.7688
      6 O1B         8.3472    4.6082   -2.4473 O.2       1 ACP        -0.9167
      7 O2B         8.5065    2.0404   -1.9210 O.3       1 ACP        -0.8201
      8 C3B         6.8709    2.7653   -3.9348 C.3       1 ACP        -0.6097
      9 PA          6.2488    3.4955    0.2423 P.3       1 ACP         1.5979
     10 O1A         6.5597    4.9479    0.5318 O.co2     1 ACP        -0.8617
     11 O2A         6.9993    2.3884    0.9499 O.co2     1 ACP        -0.8617
     12 O3A         6.3499    3.2611   -1.3696 O.3       1 ACP        -0.8283
     13 O5'         4.6405    3.2701    0.4379 O.3       1 ACP        -0.5783
     14 C5'         4.0922    1.9801    0.2227 C.3       1 ACP         0.1980
     15 C4'         2.5944    2.0310    0.4653 C.3       1 ACP         0.0815
     16 O4'         1.9327    2.5740   -0.6889 O.3       1 ACP        -0.4127
     17 C3'         1.9685    0.6634    0.6767 C.3       1 ACP         0.0890
     18 O3'         2.1425    0.1975    1.9977 O.3       1 ACP        -0.6221
     19 C2'         0.5176    0.9128    0.3099 C.3       1 ACP         0.1067
     20 O2'        -0.2103    1.4454    1.4152 O.3       1 ACP        -0.6053
     21 C1'         0.6219    1.9765   -0.7844 C.3       1 ACP         0.4223
     22 N9          0.4237    1.4496   -2.1357 N.pl3     1 ACP        -0.6834
     23 C8          1.4026    0.9717   -2.9660 C.ar      1 ACP         0.5614
     24 N7          0.9183    0.5619   -4.1197 N.2       1 ACP        -0.5751
     25 C5         -0.4330    0.7845   -4.0331 C.ar      1 ACP        -0.2117
     26 C6         -1.4794    0.5615   -4.9225 C.ar      1 ACP         0.7177
     27 N6         -1.2378    0.0044   -6.1899 N.pl3     1 ACP        -0.9401
     28 N1         -2.7406    0.8885   -4.5512 N.ar      1 ACP        -0.8008
     29 C2         -2.9113    1.4216   -3.3172 C.ar      1 ACP         0.6565
     30 N3         -1.9824    1.6843   -2.3721 N.ar      1 ACP        -0.7061
     31 C4         -0.7613    1.3370   -2.8054 C.ar      1 ACP         0.5715
     32 HOG3        6.9622   -0.8121   -4.0110 H         1 ACP         0.4226
     33 HOB2        8.9411    2.0595   -1.0418 H         1 ACP         0.4482
     34 H3B1        7.6708    2.7181   -4.6824 H         1 ACP         0.1012
     35 H3B2        6.1824    3.5559   -4.2520 H         1 ACP         0.1012
     36 H5'1        4.3030    1.6731   -0.8066 H         1 ACP         0.0481
     37 H5'2        4.5679    1.2740    0.9106 H         1 ACP         0.0481
     38 H4'         2.3751    2.7029    1.3156 H         1 ACP         0.0904
     39 H3'         2.4336   -0.1217   -0.0015 H         1 ACP         0.0809
     40 HO3'        1.7138    0.8467    2.5755 H         1 ACP         0.4528
     41 H2'         0.0316    0.0155   -0.0339 H         1 ACP         0.0594
     42 HO2'       -1.1270    1.5823    1.1180 H         1 ACP         0.4344
     43 H1'        -0.1474    2.7798   -0.6651 H         1 ACP         0.1127
     44 H8          2.4442    0.9470   -2.6763 H         1 ACP         0.1050
     45 HN61       -0.2955   -0.1901   -6.4713 H         1 ACP         0.4211
     46 HN62       -1.9987   -0.1045   -6.8334 H         1 ACP         0.4211
     47 H2         -3.9335    1.6716   -3.0534 H         1 ACP         0.0375
@<TRIPOS>BOND
     1    1    2 2
     2    1    3 1
     3    1    4 1
     4    1    8 1
     5    4   32 1
     6    5    6 2
     7    5    7 1
     8    5    8 1
     9    5   12 1
    10    7   33 1
    11    8   34 1
    12    8   35 1
    13    9   10 2
    14    9   11 1
    15    9   12 1
    16    9   13 1
    17   13   14 1
    18   14   15 1
    19   14   36 1
    20   14   37 1
    21   15   16 1
    22   15   17 1
    23   15   38 1
    24   16   21 1
    25   17   18 1
    26   17   19 1
    27   17   39 1
    28   18   40 1
    29   19   20 1
    30   19   21 1
    31   19   41 1
    32   20   42 1
    33   21   22 1
    34   21   43 1
    35   22   23 ar
    36   22   31 ar
    37   23   24 ar
    38   23   44 1
    39   24   25 ar
    40   25   26 ar
    41   25   31 ar
    42   26   27 1
    43   26   28 ar
    44   27   45 1
    45   27   46 1
    46   28   29 ar
    47   29   30 ar
    48   29   47 1
    49   30   31 ar
@<TRIPOS>SUBSTRUCTURE
     1 ACP         1 GROUP 0 A     ****
@<TRIPOS>MOLECULE
[[[5-(6-aminopurin-9-yl)-3,4-dihydroxy-tetrahydrofuran-2-yl]methoxy-oxido-phosphoryl]oxy-hydroxy-phosphoryl]methyl-hydroxy-phosphinate
   47    49     1     0     0
SMALL
USER_CHARGES

@<TRIPOS>ATOM
      1 PG          4.9927   -3.7438   -1.3370 P.3       1 ACP         1.3516
      2 O1G         4.2291   -2.5724   -1.9100 O.co2     1 ACP        -0.8379
      3 O2G         4.3590   -4.7319   -0.3853 O.co2     1 ACP        -0.8379
      4 O3G         5.7302   -4.5531   -2.5458 O.3       1 ACP        -0.7980
      5 PB          6.4402   -1.8894    0.8584 P.3       1 ACP         1.7688
      6 O1B         7.7779   -1.4648    1.3862 O.2       1 ACP        -0.9167
      7 O2B         5.4807   -2.6097    1.9410 O.3       1 ACP        -0.8201
      8 C3B         6.5010   -3.0658   -0.5099 C.3       1 ACP        -0.6097
      9 PA          5.7603    0.3294   -0.9773 P.3       1 ACP         1.5979
     10 O1A         5.7760   -0.4584   -2.2692 O.co2     1 ACP        -0.8617
     11 O2A         6.9041    1.2541   -0.6217 O.co2     1 ACP        -0.8617
     12 O3A         5.5152   -0.7119    0.2552 O.3       1 ACP        -0.8283
     13 O5'         4.3515    1.1573   -0.9028 O.3       1 ACP        -0.5783
     14 C5'         4.0922    1.9801    0.2227 C.3       1 ACP         0.1980
     15 C4'         2.5944    2.0310    0.4653 C.3       1 ACP         0.0815
     16 O4'         1.9327    2.5740   -0.6889 O.3       1 ACP        -0.4127
     17 C3'         1.9685    0.6634    0.6767 C.3       1 ACP         0.0890
     18 O3'         2.1425    0.1975    1.9977 O.3       1 ACP        -0.6221
     19 C2'         0.5176    0.9128    0.3099 C.3       1 ACP         0.1067
     20 O2'        -0.2103    1.4454    1.4152 O.3       1 ACP        -0.6053
     21 C1'         0.6219    1.9765   -0.7844 C.3       1 ACP         0.4223
     22 N9          0.4237    1.4496   -2.1357 N.pl3     1 ACP        -0.6834
     23 C8          1.4026    0.9717   -2.9660 C.ar      1 ACP         0.5614
     24 N7          0.9183    0.5619   -4.1197 N.2       1 ACP        -0.5751
     25 C5         -0.4330    0.7845   -4.0331 C.ar      1 ACP        -0.2117
     26 C6         -1.4794    0.5615   -4.9225 C.ar      1 ACP         0.7177
     27 N6         -1.2378    0.0044   -6.1899 N.pl3     1 ACP        -0.9401
     28 N1         -2.7406    0.8885   -4.5512 N.ar      1 ACP        -0.8008
     29 C2         -2.9113    1.4216   -3.3172 C.ar      1 ACP         0.6565
     30 N3         -1.9824    1.6843   -2.3721 N.ar      1 ACP        -0.7061
     31 C4         -0.7613    1.3370   -2.8054 C.ar      1 ACP         0.5715
     32 HOG3        5.1757   -4.9385   -3.2573 H         1 ACP         0.4226
     33 HOB2        5.2186   -2.1154    2.7467 H         1 ACP         0.4482
     34 H3B1        7.0783   -3.9347   -0.1743 H         1 ACP         0.1012
     35 H3B2        7.0746   -2.5912   -1.3133 H         1 ACP         0.1012
     36 H5'1        4.6070    1.5616    1.0933 H         1 ACP         0.0481
     37 H5'2        4.4825    2.9835    0.0252 H         1 ACP         0.0481
     38 H4'         2.3751    2.7029    1.3156 H         1 ACP         0.0904
     39 H3'         2.4336   -0.1217   -0.0015 H         1 ACP         0.0809
     40 HO3'        1.7160   -0.6716    2.0397 H         1 ACP         0.4528
     41 H2'         0.0316    0.0155   -0.0339 H         1 ACP         0.0594
     42 HO2'       -0.1608    0.7921    2.1351 H         1 ACP         0.4344
     43 H1'        -0.1474    2.7798   -0.6651 H         1 ACP         0.1127
     44 H8          2.4442    0.9470   -2.6763 H         1 ACP         0.1050
     45 HN61       -0.2955   -0.1901   -6.4713 H         1 ACP         0.4211
     46 HN62       -1.9987   -0.1045   -6.8334 H         1 ACP         0.4211
     47 H2         -3.9335    1.6716   -3.0534 H         1 ACP         0.0375
@<TRIPOS>BOND
     1    1    2 2
     2    1    3 1
     3    1    4 1
     4    1    8 1
     5    4   32 1
     6    5    6 2
     7    5    7 1
     8    5    8 1
     9    5   12 1
    10    7   33 1
    11    8   34 1
    12    8   35 1
    13    9   10 2
    14    9   11 1
    15    9   12 1
    16    9   13 1
    17   13   14 1
    18   14   15 1
    19   14   36 1
    20   14   37 1
    21   15   16 1
    22   15   17 1
    23   15   38 1
    24   16   21 1
    25   17   18 1
    26   17   19 1
    27   17   39 1
    28   18   40 1
    29   19   20 1
    30   19   21 1
    31   19   41 1
    32   20   42 1
    33   21   22 1
    34   21   43 1
    35   22   23 ar
    36   22   31 ar
    37   23   24 ar
    38   23   44 1
    39   24   25 ar
    40   25   26 ar
    41   25   31 ar
    42   26   27 1
    43   26   28 ar
    44   27   45 1
    45   27   46 1
    46   28   29 ar
    47   29   30 ar
    48   29   47 1
    49   30   31 ar
@<TRIPOS>SUBSTRUCTURE
     1 ACP         1 GROUP 0 A     ****
@<TRIPOS>MOLECULE
[[[5-(6-aminopurin-9-yl)-3,4-dihydroxy-tetrahydrofuran-2-yl]methoxy-oxido-phosphoryl]oxy-hydroxy-phosphoryl]methyl-hydroxy-phosphinate
   47    49     1     0     0
SMALL
USER_CHARGES

@<TRIPOS>ATOM
      1 PG          0.8226   -1.3687   -5.0977 P.3       1 ACP         1.3516
      2 O1G         0.8559   -2.8792   -5.0736 O.co2     1 ACP        -0.8379
      3 O2G         0.6089   -0.5465   -3.8479 O.co2     1 ACP        -0.8379
      4 O3G         2.1311   -0.8106   -5.8956 O.3       1 ACP        -0.7980
      5 PB         -0.8716    0.8544   -6.6920 P.3       1 ACP         1.7688
      6 O1B        -1.9518    1.0443   -7.7144 O.2       1 ACP        -0.9167
      7 O2B         0.5551    1.5051   -7.0827 O.3       1 ACP        -0.8201
      8 C3B        -0.4704   -0.8663   -6.3203 C.3       1 ACP        -0.6097
      9 PA         -2.3606    1.1373   -4.1506 P.3       1 ACP         1.5979
     10 O1A        -2.1701   -0.2747   -3.6407 O.co2     1 ACP        -0.8617
     11 O2A        -3.6866    1.5770   -4.7320 O.co2     1 ACP        -0.8617
     12 O3A        -1.1756    1.4581   -5.2260 O.3       1 ACP        -0.8283
     13 O5'        -1.9207    2.1716   -2.9622 O.3       1 ACP        -0.5783
     14 C5'        -0.7794    1.8744   -2.1748 C.3       1 ACP         0.1980
     15 C4'        -0.9699    2.4597   -0.7819 C.3       1 ACP         0.0815
     16 O4'        -2.1475    1.8640   -0.2014 O.3       1 ACP        -0.4127
     17 C3'         0.1697    2.1347    0.1695 C.3       1 ACP         0.0890
     18 O3'         0.1809    3.0982    1.2223 O.3       1 ACP        -0.6221
     19 C2'        -0.2543    0.7880    0.7187 C.3       1 ACP         0.1067
     20 O2'         0.3606    0.4944    1.9582 O.3       1 ACP        -0.6053
     21 C1'        -1.7682    0.9516    0.8548 C.3       1 ACP         0.4223
     22 N9         -2.5926   -0.2553    0.7436 N.pl3     1 ACP        -0.6834
     23 C8         -3.5599   -0.4866   -0.1983 C.ar      1 ACP         0.5614
     24 N7         -4.1294   -1.6639   -0.0461 N.2       1 ACP        -0.5751
     25 C5         -3.5041   -2.2191    1.0420 C.ar      1 ACP        -0.2117
     26 C6         -3.6605   -3.4390    1.6925 C.ar      1 ACP         0.7177
     27 N6         -4.6108   -4.3735    1.2468 N.pl3     1 ACP        -0.9401
     28 N1         -2.8820   -3.7179    2.7657 N.ar      1 ACP        -0.8008
     29 C2         -1.9837   -2.7784    3.1481 C.ar      1 ACP         0.6565
     30 N3         -1.7408   -1.5668    2.6022 N.ar      1 ACP        -0.7061
     31 C4         -2.5438   -1.3578    1.5483 C.ar      1 ACP         0.5715
     32 HOG3        3.0210   -1.0369   -5.5506 H         1 ACP         0.4226
     33 HOB2        0.6095    2.4719   -7.2388 H         1 ACP         0.4482
     34 H3B1       -0.2008   -1.3548   -7.2635 H         1 ACP         0.1012
     35 H3B2       -1.3926   -1.3397   -5.9666 H         1 ACP         0.1012
     36 H5'1       -0.6601    0.7877   -2.1202 H         1 ACP         0.0481
     37 H5'2        0.1042    2.3072   -2.6544 H         1 ACP         0.0481
     38 H4'        -1.1469    3.5409   -0.8522 H         1 ACP         0.0904
     39 H3'         1.1601    2.1310   -0.2934 H         1 ACP         0.0809
     40 HO3'        0.9173    2.8584    1.8048 H         1 ACP         0.4528
     41 H2'        -0.0024   -0.0091    0.0062 H         1 ACP         0.0594
     42 HO2'        1.3225    0.4909    1.8095 H         1 ACP         0.4344
     43 H1'        -2.0584    1.4255    1.8301 H         1 ACP         0.1127
     44 H8         -3.8030    0.2355   -0.9657 H         1 ACP         0.1050
     45 HN61       -4.6753   -5.2653    1.6999 H         1 ACP         0.4211
     46 HN62       -5.1476   -4.1759    0.4235 H         1 ACP         0.4211
     47 H2         -1.3778   -3.0348    4.0107 H         1 ACP         0.0375
@<TRIPOS>BOND
     1    1    2 2
     2    1    3 1
     3    1    4 1
     4    1    8 1
     5    4   32 1
     6    5    6 2
     7    5    7 1
     8    5    8 1
     9    5   12 1
    10    7   33 1
    11    8   34 1
    12    8   35 1
    13    9   10 2
    14    9   11 1
    15    9   12 1
    16    9   13 1
    17   13   14 1
    18   14   15 1
    19   14   36 1
    20   14   37 1
    21   15   16 1
    22   15   17 1
    23   15   38 1
    24   16   21 1
    25   17   18 1
    26   17   19 1
    27   17   39 1
    28   18   40 1
    29   19   20 1
    30   19   21 1
    31   19   41 1
    32   20   42 1
    33   21   22 1
    34   21   43 1
    35   22   23 ar
    36   22   31 ar
    37   23   24 ar
    38   23   44 1
    39   24   25 ar
    40   25   26 ar
    41   25   31 ar
    42   26   27 1
    43   26   28 ar
    44   27   45 1
    45   27   46 1
    46   28   29 ar
    47   29   30 ar
    48   29   47 1
    49   30   31 ar
@<TRIPOS>SUBSTRUCTURE
     1 ACP         1 GROUP 0 A     ****
@<TRIPOS>MOLECULE
[[[5-(6-aminopurin-9-yl)-3,4-dihydroxy-tetrahydrofuran-2-yl]methoxy-oxido-phosphoryl]oxy-hydroxy-phosphoryl]methyl-hydroxy-phosphinate
   47    49     1     0     0
SMALL
USER_CHARGES

@<TRIPOS>ATOM
      1 PG         -0.5277    8.7956    2.0367 P.3       1 ACP         1.3516
      2 O1G        -0.0078    8.0529    3.2457 O.co2     1 ACP        -0.8379
      3 O2G        -1.7718    9.6518    2.0896 O.co2     1 ACP        -0.8379
      4 O3G         0.6875    9.6475    1.3604 O.3       1 ACP        -0.7980
      5 PB         -1.8779    6.1374    0.8265 P.3       1 ACP         1.7688
      6 O1B        -1.9246    5.2507   -0.3817 O.2       1 ACP        -0.9167
      7 O2B        -3.2934    6.8001    1.2374 O.3       1 ACP        -0.8201
      8 C3B        -0.7660    7.5531    0.6882 C.3       1 ACP        -0.6097
      9 PA          0.0332    4.7085    2.5761 P.3       1 ACP         1.5979
     10 O1A        -0.1161    4.0779    3.9435 O.co2     1 ACP        -0.8617
     11 O2A         1.1770    5.6544    2.2817 O.co2     1 ACP        -0.8617
     12 O3A        -1.3743    5.4401    2.1925 O.3       1 ACP        -0.8283
     13 O5'         0.0181    3.5132    1.4596 O.3       1 ACP        -0.5783
     14 C5'        -0.8811    2.4285    1.6206 C.3       1 ACP         0.1980
     15 C4'        -0.1994    1.3333    2.4288 C.3       1 ACP         0.0815
     16 O4'        -1.1285    0.2356    2.5840 O.3       1 ACP        -0.4127
     17 C3'         1.0324    0.7610    1.7344 C.3       1 ACP         0.0890
     18 O3'         1.9175    0.2377    2.7247 O.3       1 ACP        -0.6221
     19 C2'         0.4468   -0.3802    0.9263 C.3       1 ACP         0.1067
     20 O2'         1.3993   -1.3703    0.5961 O.3       1 ACP        -0.6053
     21 C1'        -0.6159   -0.9100    1.8769 C.3       1 ACP         0.4223
     22 N9         -1.7127   -1.6108    1.2130 N.pl3     1 ACP        -0.6834
     23 C8         -1.7712   -2.9546    0.9544 C.ar      1 ACP         0.5614
     24 N7         -2.8883   -3.2948    0.3462 N.2       1 ACP        -0.5751
     25 C5         -3.5834   -2.1202    0.2043 C.ar      1 ACP        -0.2117
     26 C6         -4.8225   -1.8251   -0.3554 C.ar      1 ACP         0.7177
     27 N6         -5.6154   -2.8395   -0.9189 N.pl3     1 ACP        -0.9401
     28 N1         -5.2589   -0.5425   -0.3507 N.ar      1 ACP        -0.8008
     29 C2         -4.4510    0.3913    0.2069 C.ar      1 ACP         0.6565
     30 N3         -3.2368    0.2296    0.7767 N.ar      1 ACP        -0.7061
     31 C4         -2.8684   -1.0596    0.7376 C.ar      1 ACP         0.5715
     32 HOG3        1.1369   10.3314    1.9013 H         1 ACP         0.4226
     33 HOB2       -4.0457    6.2123    1.4623 H         1 ACP         0.4482
     34 H3B1       -1.0642    8.1232   -0.1989 H         1 ACP         0.1012
     35 H3B2        0.2350    7.1545    0.4913 H         1 ACP         0.1012
     36 H5'1       -1.7769    2.7851    2.1387 H         1 ACP         0.0481
     37 H5'2       -1.1653    2.0543    0.6320 H         1 ACP         0.0481
     38 H4'         0.0403    1.7078    3.4343 H         1 ACP         0.0904
     39 H3'         1.5906    1.4859    1.1353 H         1 ACP         0.0809
     40 HO3'        2.1521    0.9800    3.3017 H         1 ACP         0.4528
     41 H2'        -0.0017    0.0018    0.0005 H         1 ACP         0.0594
     42 HO2'        2.0953   -0.9375    0.0709 H         1 ACP         0.4344
     43 H1'        -0.1998   -1.6319    2.6178 H         1 ACP         0.1127
     44 H8         -0.9745   -3.6312    1.2318 H         1 ACP         0.1050
     45 HN61       -5.2619   -3.7766   -0.9586 H         1 ACP         0.4211
     46 HN62       -6.4834   -2.5990   -1.3590 H         1 ACP         0.4211
     47 H2         -4.8317    1.4071    0.1930 H         1 ACP         0.0375
@<TRIPOS>BOND
     1    1    2 2
     2    1    3 1
     3    1    4 1
     4    1    8 1
     5    4   32 1
     6    5    6 2
     7    5    7 1
     8    5    8 1
     9    5   12 1
    10    7   33 1
    11    8   34 1
    12    8   35 1
    13    9   10 2
    14    9   11 1
    15    9   12 1
    16    9   13 1
    17   13   14 1
    18   14   15 1
    19   14   36 1
    20   14   37 1
    21   15   16 1
    22   15   17 1
    23   15   38 1
    24   16   21 1
    25   17   18 1
    26   17   19 1
    27   17   39 1
    28   18   40 1
    29   19   20 1
    30   19   21 1
    31   19   41 1
    32   20   42 1
    33   21   22 1
    34   21   43 1
    35   22   23 ar
    36   22   31 ar
    37   23   24 ar
    38   23   44 1
    39   24   25 ar
    40   25   26 ar
    41   25   31 ar
    42   26   27 1
    43   26   28 ar
    44   27   45 1
    45   27   46 1
    46   28   29 ar
    47   29   30 ar
    48   29   47 1
    49   30   31 ar
@<TRIPOS>SUBSTRUCTURE
     1 ACP         1 GROUP 0 A     ****
@<TRIPOS>MOLECULE
[[[5-(6-aminopurin-9-yl)-3,4-dihydroxy-tetrahydrofuran-2-yl]methoxy-oxido-phosphoryl]oxy-hydroxy-phosphoryl]methyl-hydroxy-phosphinate
   47    49     1     0     0
SMALL
USER_CHARGES

@<TRIPOS>ATOM
      1 PG          8.3297    0.2133    0.9641 P.3       1 ACP         1.3516
      2 O1G         9.2602   -0.6584    0.1531 O.co2     1 ACP        -0.8379
      3 O2G         6.8521    0.3139    0.6636 O.co2     1 ACP        -0.8379
      4 O3G         8.5394   -0.1002    2.5509 O.3       1 ACP        -0.7980
      5 PB          8.2430    3.3256    1.7767 P.3       1 ACP         1.7688
      6 O1B         8.9648    4.6315    1.6296 O.2       1 ACP        -0.9167
      7 O2B         8.0731    2.8115    3.2994 O.3       1 ACP        -0.8201
      8 C3B         9.0196    1.9286    0.9370 C.3       1 ACP        -0.6097
      9 PA          6.1595    3.5245   -0.3149 P.3       1 ACP         1.5979
     10 O1A         6.6440    2.3951   -1.1979 O.co2     1 ACP        -0.8617
     11 O2A         6.3928    4.9672   -0.7072 O.co2     1 ACP        -0.8617
     12 O3A         6.7392    3.2823    1.1914 O.3       1 ACP        -0.8283
     13 O5'         4.5669    3.2940   -0.0211 O.3       1 ACP        -0.5783
     14 C5'         4.0922    1.9801    0.2227 C.3       1 ACP         0.1980
     15 C4'         2.5944    2.0310    0.4653 C.3       1 ACP         0.0815
     16 O4'         1.9327    2.5740   -0.6889 O.3       1 ACP        -0.4127
     17 C3'         1.9685    0.6634    0.6767 C.3       1 ACP         0.0890
     18 O3'         2.1425    0.1975    1.9977 O.3       1 ACP        -0.6221
     19 C2'         0.5176    0.9128    0.3099 C.3       1 ACP         0.1067
     20 O2'        -0.2103    1.4454    1.4152 O.3       1 ACP        -0.6053
     21 C1'         0.6219    1.9765   -0.7844 C.3       1 ACP         0.4223
     22 N9          0.4237    1.4496   -2.1357 N.pl3     1 ACP        -0.6834
     23 C8         -0.7736    1.3475   -2.7932 C.ar      1 ACP         0.5614
     24 N7         -0.6356    0.8373   -3.9991 N.2       1 ACP        -0.5751
     25 C5          0.7095    0.5981   -4.1281 C.ar      1 ACP        -0.2117
     26 C6          1.4733    0.0704   -5.1643 C.ar      1 ACP         0.7177
     27 N6          0.8693   -0.3355   -6.3666 N.pl3     1 ACP        -0.9401
     28 N1          2.8130   -0.0482   -5.0009 N.ar      1 ACP        -0.8008
     29 C2          3.3380    0.3602   -3.8204 C.ar      1 ACP         0.6565
     30 N3          2.7052    0.8841   -2.7480 N.ar      1 ACP        -0.7061
     31 C4          1.3867    0.9726   -2.9785 C.ar      1 ACP         0.5715
     32 HOG3        8.3744   -1.0118    2.8734 H         1 ACP         0.4226
     33 HOB2        7.5834    3.3720    3.9382 H         1 ACP         0.4482
     34 H3B1       10.0469    1.8473    1.3100 H         1 ACP         0.1012
     35 H3B2        9.0842    2.1903   -0.1245 H         1 ACP         0.1012
     36 H5'1        4.3180    1.3550   -0.6470 H         1 ACP         0.0481
     37 H5'2        4.6085    1.5739    1.0983 H         1 ACP         0.0481
     38 H4'         2.3751    2.7029    1.3156 H         1 ACP         0.0904
     39 H3'         2.4336   -0.1217   -0.0015 H         1 ACP         0.0809
     40 HO3'        3.0987    0.1465    2.1461 H         1 ACP         0.4528
     41 H2'         0.0316    0.0155   -0.0339 H         1 ACP         0.0594
     42 HO2'       -0.1608    0.7921    2.1351 H         1 ACP         0.4344
     43 H1'        -0.1474    2.7798   -0.6651 H         1 ACP         0.1127
     44 H8         -1.7070    1.6599   -2.3451 H         1 ACP         0.1050
     45 HN61       -0.1277   -0.2866   -6.4583 H         1 ACP         0.4211
     46 HN62        1.4308   -0.7566   -7.0823 H         1 ACP         0.4211
     47 H2          4.4130    0.2505   -3.7241 H         1 ACP         0.0375
@<TRIPOS>BOND
     1    1    2 2
     2    1    3 1
     3    1    4 1
     4    1    8 1
     5    4   32 1
     6    5    6 2
     7    5    7 1
     8    5    8 1
     9    5   12 1
    10    7   33 1
    11    8   34 1
    12    8   35 1
    13    9   10 2
    14    9   11 1
    15    9   12 1
    16    9   13 1
    17   13   14 1
    18   14   15 1
    19   14   36 1
    20   14   37 1
    21   15   16 1
    22   15   17 1
    23   15   38 1
    24   16   21 1
    25   17   18 1
    26   17   19 1
    27   17   39 1
    28   18   40 1
    29   19   20 1
    30   19   21 1
    31   19   41 1
    32   20   42 1
    33   21   22 1
    34   21   43 1
    35   22   23 ar
    36   22   31 ar
    37   23   24 ar
    38   23   44 1
    39   24   25 ar
    40   25   26 ar
    41   25   31 ar
    42   26   27 1
    43   26   28 ar
    44   27   45 1
    45   27   46 1
    46   28   29 ar
    47   29   30 ar
    48   29   47 1
    49   30   31 ar
@<TRIPOS>SUBSTRUCTURE
     1 ACP         1 GROUP 0 A     ****
@<TRIPOS>MOLECULE
[[[5-(6-aminopurin-9-yl)-3,4-dihydroxy-tetrahydrofuran-2-yl]methoxy-oxido-phosphoryl]oxy-hydroxy-phosphoryl]methyl-hydroxy-phosphinate
   47    49     1     0     0
SMALL
USER_CHARGES

@<TRIPOS>ATOM
      1 PG         -1.8375    8.3378    2.0354 P.3       1 ACP         1.3516
      2 O1G        -0.9988    7.3219    2.7755 O.co2     1 ACP        -0.8379
      3 O2G        -3.2432    8.6895    2.4644 O.co2     1 ACP        -0.8379
      4 O3G        -0.9751    9.7070    1.8316 O.3       1 ACP        -0.7980
      5 PB         -2.5995    6.2208   -0.2650 P.3       1 ACP         1.7688
      6 O1B        -2.5664    5.9834   -1.7451 O.2       1 ACP        -0.9167
      7 O2B        -4.0755    6.2015    0.3930 O.3       1 ACP        -0.8201
      8 C3B        -1.9142    7.8043    0.2667 C.3       1 ACP        -0.6097
      9 PA         -0.1841    4.7791    0.6529 P.3       1 ACP         1.5979
     10 O1A         0.5954    5.9768    1.1506 O.co2     1 ACP        -0.8617
     11 O2A         0.1742    4.1138   -0.6581 O.co2     1 ACP        -0.8617
     12 O3A        -1.7686    5.1698    0.6355 O.3       1 ACP        -0.8283
     13 O5'        -0.2060    3.6558    1.8418 O.3       1 ACP        -0.5783
     14 C5'        -0.8811    2.4285    1.6206 C.3       1 ACP         0.1980
     15 C4'        -0.1994    1.3333    2.4288 C.3       1 ACP         0.0815
     16 O4'        -1.1285    0.2356    2.5840 O.3       1 ACP        -0.4127
     17 C3'         1.0324    0.7610    1.7344 C.3       1 ACP         0.0890
     18 O3'         1.9175    0.2377    2.7247 O.3       1 ACP        -0.6221
     19 C2'         0.4468   -0.3802    0.9263 C.3       1 ACP         0.1067
     20 O2'         1.3993   -1.3703    0.5961 O.3       1 ACP        -0.6053
     21 C1'        -0.6159   -0.9100    1.8769 C.3       1 ACP         0.4223
     22 N9         -1.7127   -1.6108    1.2130 N.pl3     1 ACP        -0.6834
     23 C8         -1.7712   -2.9546    0.9544 C.ar      1 ACP         0.5614
     24 N7         -2.8883   -3.2948    0.3462 N.2       1 ACP        -0.5751
     25 C5         -3.5834   -2.1202    0.2043 C.ar      1 ACP        -0.2117
     26 C6         -4.8225   -1.8251   -0.3554 C.ar      1 ACP         0.7177
     27 N6         -5.6154   -2.8395   -0.9189 N.pl3     1 ACP        -0.9401
     28 N1         -5.2589   -0.5425   -0.3507 N.ar      1 ACP        -0.8008
     29 C2         -4.4510    0.3913    0.2069 C.ar      1 ACP         0.6565
     30 N3         -3.2368    0.2296    0.7767 N.ar      1 ACP        -0.7061
     31 C4         -2.8684   -1.0596    0.7376 C.ar      1 ACP         0.5715
     32 HOG3       -0.6528   10.1798    2.6284 H         1 ACP         0.4226
     33 HOB2       -4.6178    5.3876    0.3192 H         1 ACP         0.4482
     34 H3B1       -2.4562    8.5950   -0.2644 H         1 ACP         0.1012
     35 H3B2       -0.8768    7.8366   -0.0833 H         1 ACP         0.1012
     36 H5'1       -1.9255    2.5382    1.9294 H         1 ACP         0.0481
     37 H5'2       -0.8473    2.1933    0.5521 H         1 ACP         0.0481
     38 H4'         0.0403    1.7078    3.4343 H         1 ACP         0.0904
     39 H3'         1.5906    1.4859    1.1353 H         1 ACP         0.0809
     40 HO3'        2.6839   -0.1150    2.2479 H         1 ACP         0.4528
     41 H2'        -0.0017    0.0018    0.0005 H         1 ACP         0.0594
     42 HO2'        2.0953   -0.9375    0.0709 H         1 ACP         0.4344
     43 H1'        -0.1998   -1.6319    2.6178 H         1 ACP         0.1127
     44 H8         -0.9745   -3.6312    1.2318 H         1 ACP         0.1050
     45 HN61       -5.2619   -3.7766   -0.9586 H         1 ACP         0.4211
     46 HN62       -6.4834   -2.5990   -1.3590 H         1 ACP         0.4211
     47 H2         -4.8317    1.4071    0.1930 H         1 ACP         0.0375
@<TRIPOS>BOND
     1    1    2 2
     2    1    3 1
     3    1    4 1
     4    1    8 1
     5    4   32 1
     6    5    6 2
     7    5    7 1
     8    5    8 1
     9    5   12 1
    10    7   33 1
    11    8   34 1
    12    8   35 1
    13    9   10 2
    14    9   11 1
    15    9   12 1
    16    9   13 1
    17   13   14 1
    18   14   15 1
    19   14   36 1
    20   14   37 1
    21   15   16 1
    22   15   17 1
    23   15   38 1
    24   16   21 1
    25   17   18 1
    26   17   19 1
    27   17   39 1
    28   18   40 1
    29   19   20 1
    30   19   21 1
    31   19   41 1
    32   20   42 1
    33   21   22 1
    34   21   43 1
    35   22   23 ar
    36   22   31 ar
    37   23   24 ar
    38   23   44 1
    39   24   25 ar
    40   25   26 ar
    41   25   31 ar
    42   26   27 1
    43   26   28 ar
    44   27   45 1
    45   27   46 1
    46   28   29 ar
    47   29   30 ar
    48   29   47 1
    49   30   31 ar
@<TRIPOS>SUBSTRUCTURE
     1 ACP         1 GROUP 0 A     ****
@<TRIPOS>MOLECULE
[[[5-(6-aminopurin-9-yl)-3,4-dihydroxy-tetrahydrofuran-2-yl]methoxy-oxido-phosphoryl]oxy-hydroxy-phosphoryl]methyl-hydroxy-phosphinate
   47    49     1     0     0
SMALL
USER_CHARGES

@<TRIPOS>ATOM
      1 PG          7.6116    5.3418    4.3641 P.3       1 ACP         1.3516
      2 O1G         8.3754    4.8022    3.1772 O.co2     1 ACP        -0.8379
      3 O2G         7.8557    4.8495    5.7719 O.co2     1 ACP        -0.8379
      4 O3G         7.6610    6.9719    4.3445 O.3       1 ACP        -0.7980
      5 PB          5.0445    3.5179    3.7024 P.3       1 ACP         1.7688
      6 O1B         3.5708    3.5624    3.4301 O.2       1 ACP        -0.9167
      7 O2B         5.4707    2.6412    4.9914 O.3       1 ACP        -0.8201
      8 C3B         5.8109    5.1245    4.0047 C.3       1 ACP        -0.6097
      9 PA          6.1806    3.4027    0.9727 P.3       1 ACP         1.5979
     10 O1A         7.0172    2.3605    0.2629 O.co2     1 ACP        -0.8617
     11 O2A         6.5901    4.8594    0.9646 O.co2     1 ACP        -0.8617
     12 O3A         5.9620    2.9200    2.5163 O.3       1 ACP        -0.8283
     13 O5'         4.6405    3.2701    0.4379 O.3       1 ACP        -0.5783
     14 C5'         4.0922    1.9801    0.2227 C.3       1 ACP         0.1980
     15 C4'         2.5944    2.0310    0.4653 C.3       1 ACP         0.0815
     16 O4'         1.9327    2.5740   -0.6889 O.3       1 ACP        -0.4127
     17 C3'         1.9685    0.6634    0.6767 C.3       1 ACP         0.0890
     18 O3'         2.1425    0.1975    1.9977 O.3       1 ACP        -0.6221
     19 C2'         0.5176    0.9128    0.3099 C.3       1 ACP         0.1067
     20 O2'        -0.2103    1.4454    1.4152 O.3       1 ACP        -0.6053
     21 C1'         0.6219    1.9765   -0.7844 C.3       1 ACP         0.4223
     22 N9          0.4237    1.4496   -2.1357 N.pl3     1 ACP        -0.6834
     23 C8          1.4026    0.9717   -2.9660 C.ar      1 ACP         0.5614
     24 N7          0.9183    0.5619   -4.1197 N.2       1 ACP        -0.5751
     25 C5         -0.4330    0.7845   -4.0331 C.ar      1 ACP        -0.2117
     26 C6         -1.4794    0.5615   -4.9225 C.ar      1 ACP         0.7177
     27 N6         -1.2378    0.0044   -6.1899 N.pl3     1 ACP        -0.9401
     28 N1         -2.7406    0.8885   -4.5512 N.ar      1 ACP        -0.8008
     29 C2         -2.9113    1.4216   -3.3172 C.ar      1 ACP         0.6565
     30 N3         -1.9824    1.6843   -2.3721 N.ar      1 ACP        -0.7061
     31 C4         -0.7613    1.3370   -2.8054 C.ar      1 ACP         0.5715
     32 HOG3        8.5357    7.4139    4.3865 H         1 ACP         0.4226
     33 HOB2        5.2449    1.6869    5.0125 H         1 ACP         0.4482
     34 H3B1        5.2773    5.5945    4.8385 H         1 ACP         0.1012
     35 H3B2        5.6237    5.7392    3.1177 H         1 ACP         0.1012
     36 H5'1        4.3030    1.6731   -0.8066 H         1 ACP         0.0481
     37 H5'2        4.5679    1.2740    0.9106 H         1 ACP         0.0481
     38 H4'         2.3751    2.7029    1.3156 H         1 ACP         0.0904
     39 H3'         2.4336   -0.1217   -0.0015 H         1 ACP         0.0809
     40 HO3'        1.7160   -0.6716    2.0397 H         1 ACP         0.4528
     41 H2'         0.0316    0.0155   -0.0339 H         1 ACP         0.0594
     42 HO2'       -1.1270    1.5823    1.1180 H         1 ACP         0.4344
     43 H1'        -0.1474    2.7798   -0.6651 H         1 ACP         0.1127
     44 H8          2.4442    0.9470   -2.6763 H         1 ACP         0.1050
     45 HN61       -0.2955   -0.1901   -6.4713 H         1 ACP         0.4211
     46 HN62       -1.9987   -0.1045   -6.8334 H         1 ACP         0.4211
     47 H2         -3.9335    1.6716   -3.0534 H         1 ACP         0.0375
@<TRIPOS>BOND
     1    1    2 2
     2    1    3 1
     3    1    4 1
     4    1    8 1
     5    4   32 1
     6    5    6 2
     7    5    7 1
     8    5    8 1
     9    5   12 1
    10    7   33 1
    11    8   34 1
    12    8   35 1
    13    9   10 2
    14    9   11 1
    15    9   12 1
    16    9   13 1
    17   13   14 1
    18   14   15 1
    19   14   36 1
    20   14   37 1
    21   15   16 1
    22   15   17 1
    23   15   38 1
    24   16   21 1
    25   17   18 1
    26   17   19 1
    27   17   39 1
    28   18   40 1
    29   19   20 1
    30   19   21 1
    31   19   41 1
    32   20   42 1
    33   21   22 1
    34   21   43 1
    35   22   23 ar
    36   22   31 ar
    37   23   24 ar
    38   23   44 1
    39   24   25 ar
    40   25   26 ar
    41   25   31 ar
    42   26   27 1
    43   26   28 ar
    44   27   45 1
    45   27   46 1
    46   28   29 ar
    47   29   30 ar
    48   29   47 1
    49   30   31 ar
@<TRIPOS>SUBSTRUCTURE
     1 ACP         1 GROUP 0 A     ****
@<TRIPOS>MOLECULE
[[[5-(6-aminopurin-9-yl)-3,4-dihydroxy-tetrahydrofuran-2-yl]methoxy-oxido-phosphoryl]oxy-hydroxy-phosphoryl]methyl-hydroxy-phosphinate
   47    49     1     0     0
SMALL
USER_CHARGES

@<TRIPOS>ATOM
      1 PG          6.9295    6.4407   -2.6163 P.3       1 ACP         1.3516
      2 O1G         5.8230    6.3394   -1.5923 O.co2     1 ACP        -0.8379
      3 O2G         6.6531    6.4785   -4.1016 O.co2     1 ACP        -0.8379
      4 O3G         7.9241    7.6709   -2.2193 O.3       1 ACP        -0.7980
      5 PB          7.6096    3.3046   -2.3782 P.3       1 ACP         1.7688
      6 O1B         8.7100    2.3270   -2.0928 O.2       1 ACP        -0.9167
      7 O2B         6.9327    3.1579   -3.8383 O.3       1 ACP        -0.8201
      8 C3B         8.0974    5.0414   -2.3046 C.3       1 ACP        -0.6097
      9 PA          6.2488    3.4955    0.2423 P.3       1 ACP         1.5979
     10 O1A         6.5597    4.9479    0.5318 O.co2     1 ACP        -0.8617
     11 O2A         6.9993    2.3884    0.9499 O.co2     1 ACP        -0.8617
     12 O3A         6.3499    3.2611   -1.3696 O.3       1 ACP        -0.8283
     13 O5'         4.6405    3.2701    0.4379 O.3       1 ACP        -0.5783
     14 C5'         4.0922    1.9801    0.2227 C.3       1 ACP         0.1980
     15 C4'         2.5944    2.0310    0.4653 C.3       1 ACP         0.0815
     16 O4'         1.9327    2.5740   -0.6889 O.3       1 ACP        -0.4127
     17 C3'         1.9685    0.6634    0.6767 C.3       1 ACP         0.0890
     18 O3'         2.1425    0.1975    1.9977 O.3       1 ACP        -0.6221
     19 C2'         0.5176    0.9128    0.3099 C.3       1 ACP         0.1067
     20 O2'        -0.2103    1.4454    1.4152 O.3       1 ACP        -0.6053
     21 C1'         0.6219    1.9765   -0.7844 C.3       1 ACP         0.4223
     22 N9          0.4237    1.4496   -2.1357 N.pl3     1 ACP        -0.6834
     23 C8          1.4026    0.9717   -2.9660 C.ar      1 ACP         0.5614
     24 N7          0.9183    0.5619   -4.1197 N.2       1 ACP        -0.5751
     25 C5         -0.4330    0.7845   -4.0331 C.ar      1 ACP        -0.2117
     26 C6         -1.4794    0.5615   -4.9225 C.ar      1 ACP         0.7177
     27 N6         -1.2378    0.0044   -6.1899 N.pl3     1 ACP        -0.9401
     28 N1         -2.7406    0.8885   -4.5512 N.ar      1 ACP        -0.8008
     29 C2         -2.9113    1.4216   -3.3172 C.ar      1 ACP         0.6565
     30 N3         -1.9824    1.6843   -2.3721 N.ar      1 ACP        -0.7061
     31 C4         -0.7613    1.3370   -2.8054 C.ar      1 ACP         0.5715
     32 HOG3        7.5496    8.5758   -2.1637 H         1 ACP         0.4226
     33 HOB2        6.5009    2.3107   -4.0787 H         1 ACP         0.4482
     34 H3B1        8.9303    5.1815   -3.0030 H         1 ACP         0.1012
     35 H3B2        8.4901    5.2201   -1.2979 H         1 ACP         0.1012
     36 H5'1        4.3030    1.6731   -0.8066 H         1 ACP         0.0481
     37 H5'2        4.5679    1.2740    0.9106 H         1 ACP         0.0481
     38 H4'         2.3751    2.7029    1.3156 H         1 ACP         0.0904
     39 H3'         2.4336   -0.1217   -0.0015 H         1 ACP         0.0809
     40 HO3'        1.7160   -0.6716    2.0397 H         1 ACP         0.4528
     41 H2'         0.0316    0.0155   -0.0339 H         1 ACP         0.0594
     42 HO2'       -0.1608    0.7921    2.1351 H         1 ACP         0.4344
     43 H1'        -0.1474    2.7798   -0.6651 H         1 ACP         0.1127
     44 H8          2.4442    0.9470   -2.6763 H         1 ACP         0.1050
     45 HN61       -0.2955   -0.1901   -6.4713 H         1 ACP         0.4211
     46 HN62       -1.9987   -0.1045   -6.8334 H         1 ACP         0.4211
     47 H2         -3.9335    1.6716   -3.0534 H         1 ACP         0.0375
@<TRIPOS>BOND
     1    1    2 2
     2    1    3 1
     3    1    4 1
     4    1    8 1
     5    4   32 1
     6    5    6 2
     7    5    7 1
     8    5    8 1
     9    5   12 1
    10    7   33 1
    11    8   34 1
    12    8   35 1
    13    9   10 2
    14    9   11 1
    15    9   12 1
    16    9   13 1
    17   13   14 1
    18   14   15 1
    19   14   36 1
    20   14   37 1
    21   15   16 1
    22   15   17 1
    23   15   38 1
    24   16   21 1
    25   17   18 1
    26   17   19 1
    27   17   39 1
    28   18   40 1
    29   19   20 1
    30   19   21 1
    31   19   41 1
    32   20   42 1
    33   21   22 1
    34   21   43 1
    35   22   23 ar
    36   22   31 ar
    37   23   24 ar
    38   23   44 1
    39   24   25 ar
    40   25   26 ar
    41   25   31 ar
    42   26   27 1
    43   26   28 ar
    44   27   45 1
    45   27   46 1
    46   28   29 ar
    47   29   30 ar
    48   29   47 1
    49   30   31 ar
@<TRIPOS>SUBSTRUCTURE
     1 ACP         1 GROUP 0 A     ****
@<TRIPOS>MOLECULE
[[[5-(6-aminopurin-9-yl)-3,4-dihydroxy-tetrahydrofuran-2-yl]methoxy-oxido-phosphoryl]oxy-hydroxy-phosphoryl]methyl-hydroxy-phosphinate
   47    49     1     0     0
SMALL
USER_CHARGES

@<TRIPOS>ATOM
      1 PG         -3.3581    7.8561    2.2627 P.3       1 ACP         1.3516
      2 O1G        -3.8174    6.4278    2.4429 O.co2     1 ACP        -0.8379
      3 O2G        -3.5243    8.5982    0.9568 O.co2     1 ACP        -0.8379
      4 O3G        -3.9390    8.7699    3.4824 O.3       1 ACP        -0.7980
      5 PB         -0.2947    6.9547    1.8662 P.3       1 ACP         1.7688
      6 O1B         1.0977    7.1511    2.3864 O.2       1 ACP        -0.9167
      7 O2B        -0.4978    7.3356    0.3089 O.3       1 ACP        -0.8201
      8 C3B        -1.5656    7.9185    2.7122 C.3       1 ACP        -0.6097
      9 PA         -1.1367    4.4810    3.2545 P.3       1 ACP         1.5979
     10 O1A        -2.2478    5.0798    4.0892 O.co2     1 ACP        -0.8617
     11 O2A         0.1952    4.1272    3.8795 O.co2     1 ACP        -0.8617
     12 O3A        -0.8797    5.4536    1.9694 O.3       1 ACP        -0.8283
     13 O5'        -1.7337    3.1724    2.4753 O.3       1 ACP        -0.5783
     14 C5'        -0.8811    2.4285    1.6206 C.3       1 ACP         0.1980
     15 C4'        -0.1994    1.3333    2.4288 C.3       1 ACP         0.0815
     16 O4'        -1.1285    0.2356    2.5840 O.3       1 ACP        -0.4127
     17 C3'         1.0324    0.7610    1.7344 C.3       1 ACP         0.0890
     18 O3'         1.9175    0.2377    2.7247 O.3       1 ACP        -0.6221
     19 C2'         0.4468   -0.3802    0.9263 C.3       1 ACP         0.1067
     20 O2'         1.3993   -1.3703    0.5961 O.3       1 ACP        -0.6053
     21 C1'        -0.6159   -0.9100    1.8769 C.3       1 ACP         0.4223
     22 N9         -1.7127   -1.6108    1.2130 N.pl3     1 ACP        -0.6834
     23 C8         -2.8641   -1.0399    0.7392 C.ar      1 ACP         0.5614
     24 N7         -3.6659   -1.9257    0.1858 N.2       1 ACP        -0.5751
     25 C5         -3.0053   -3.1223    0.3069 C.ar      1 ACP        -0.2117
     26 C6         -3.3321   -4.4178   -0.0813 C.ar      1 ACP         0.7177
     27 N6         -4.5476   -4.6866   -0.7335 N.pl3     1 ACP        -0.9401
     28 N1         -2.4608   -5.4225    0.1773 N.ar      1 ACP        -0.8008
     29 C2         -1.3053   -5.1020    0.8081 C.ar      1 ACP         0.6565
     30 N3         -0.8788   -3.8921    1.2315 N.ar      1 ACP        -0.7061
     31 C4         -1.7870   -2.9477    0.9438 C.ar      1 ACP         0.5715
     32 HOG3       -4.9111    8.8313    3.5988 H         1 ACP         0.4226
     33 HOB2        0.0270    6.8590   -0.3690 H         1 ACP         0.4482
     34 H3B1       -1.2756    8.9736    2.6530 H         1 ACP         0.1012
     35 H3B2       -1.5296    7.6354    3.7697 H         1 ACP         0.1012
     36 H5'1       -1.4802    1.9928    0.8147 H         1 ACP         0.0481
     37 H5'2       -0.1369    3.1042    1.1873 H         1 ACP         0.0481
     38 H4'         0.0403    1.7078    3.4343 H         1 ACP         0.0904
     39 H3'         1.5906    1.4859    1.1353 H         1 ACP         0.0809
     40 HO3'        2.1521    0.9800    3.3017 H         1 ACP         0.4528
     41 H2'        -0.0017    0.0018    0.0005 H         1 ACP         0.0594
     42 HO2'        1.7495   -1.7243    1.4324 H         1 ACP         0.4344
     43 H1'        -0.1998   -1.6319    2.6178 H         1 ACP         0.1127
     44 H8         -3.0609    0.0200    0.8250 H         1 ACP         0.1050
     45 HN61       -5.2046   -3.9433   -0.8775 H         1 ACP         0.4211
     46 HN62       -4.7849   -5.6332   -0.9625 H         1 ACP         0.4211
     47 H2         -0.6318   -5.9307    0.9993 H         1 ACP         0.0375
@<TRIPOS>BOND
     1    1    2 2
     2    1    3 1
     3    1    4 1
     4    1    8 1
     5    4   32 1
     6    5    6 2
     7    5    7 1
     8    5    8 1
     9    5   12 1
    10    7   33 1
    11    8   34 1
    12    8   35 1
    13    9   10 2
    14    9   11 1
    15    9   12 1
    16    9   13 1
    17   13   14 1
    18   14   15 1
    19   14   36 1
    20   14   37 1
    21   15   16 1
    22   15   17 1
    23   15   38 1
    24   16   21 1
    25   17   18 1
    26   17   19 1
    27   17   39 1
    28   18   40 1
    29   19   20 1
    30   19   21 1
    31   19   41 1
    32   20   42 1
    33   21   22 1
    34   21   43 1
    35   22   23 ar
    36   22   31 ar
    37   23   24 ar
    38   23   44 1
    39   24   25 ar
    40   25   26 ar
    41   25   31 ar
    42   26   27 1
    43   26   28 ar
    44   27   45 1
    45   27   46 1
    46   28   29 ar
    47   29   30 ar
    48   29   47 1
    49   30   31 ar
@<TRIPOS>SUBSTRUCTURE
     1 ACP         1 GROUP 0 A     ****
@<TRIPOS>MOLECULE
[[[5-(6-aminopurin-9-yl)-3,4-dihydroxy-tetrahydrofuran-2-yl]methoxy-oxido-phosphoryl]oxy-hydroxy-phosphoryl]methyl-hydroxy-phosphinate
   47    49     1     0     0
SMALL
USER_CHARGES

@<TRIPOS>ATOM
      1 PG         -2.3824    6.7119    0.8675 P.3       1 ACP         1.3516
      2 O1G        -1.2604    5.7141    1.0371 O.co2     1 ACP        -0.8379
      3 O2G        -3.1812    7.2343    2.0392 O.co2     1 ACP        -0.8379
      4 O3G        -1.8599    7.9666   -0.0340 O.3       1 ACP        -0.7980
      5 PB         -4.4408    4.4275   -0.0807 P.3       1 ACP         1.7688
      6 O1B        -5.3693    4.0237   -1.1865 O.2       1 ACP        -0.9167
      7 O2B        -5.1442    4.6148    1.3622 O.3       1 ACP        -0.8201
      8 C3B        -3.5799    5.9926   -0.3439 C.3       1 ACP        -0.6097
      9 PA         -1.9977    2.8866   -0.7226 P.3       1 ACP         1.5979
     10 O1A        -1.0854    4.0576   -1.0163 O.co2     1 ACP        -0.8617
     11 O2A        -2.5670    2.0491   -1.8470 O.co2     1 ACP        -0.8617
     12 O3A        -3.2211    3.4137    0.2202 O.3       1 ACP        -0.8283
     13 O5'        -1.2434    1.9102    0.3513 O.3       1 ACP        -0.5783
     14 C5'        -0.8811    2.4285    1.6206 C.3       1 ACP         0.1980
     15 C4'        -0.1994    1.3333    2.4288 C.3       1 ACP         0.0815
     16 O4'        -1.1285    0.2356    2.5840 O.3       1 ACP        -0.4127
     17 C3'         1.0324    0.7610    1.7344 C.3       1 ACP         0.0890
     18 O3'         1.9175    0.2377    2.7247 O.3       1 ACP        -0.6221
     19 C2'         0.4468   -0.3802    0.9263 C.3       1 ACP         0.1067
     20 O2'         1.3993   -1.3703    0.5961 O.3       1 ACP        -0.6053
     21 C1'        -0.6159   -0.9100    1.8769 C.3       1 ACP         0.4223
     22 N9         -1.7127   -1.6108    1.2130 N.pl3     1 ACP        -0.6834
     23 C8         -2.8641   -1.0399    0.7392 C.ar      1 ACP         0.5614
     24 N7         -3.6659   -1.9257    0.1858 N.2       1 ACP        -0.5751
     25 C5         -3.0053   -3.1223    0.3069 C.ar      1 ACP        -0.2117
     26 C6         -3.3321   -4.4178   -0.0813 C.ar      1 ACP         0.7177
     27 N6         -4.5476   -4.6866   -0.7335 N.pl3     1 ACP        -0.9401
     28 N1         -2.4608   -5.4225    0.1773 N.ar      1 ACP        -0.8008
     29 C2         -1.3053   -5.1020    0.8081 C.ar      1 ACP         0.6565
     30 N3         -0.8788   -3.8921    1.2315 N.ar      1 ACP        -0.7061
     31 C4         -1.7870   -2.9477    0.9438 C.ar      1 ACP         0.5715
     32 HOG3       -1.1015    8.4949    0.2946 H         1 ACP         0.4226
     33 HOB2       -5.6032    3.8497    1.7697 H         1 ACP         0.4482
     34 H3B1       -4.3396    6.7643   -0.5127 H         1 ACP         0.1012
     35 H3B2       -3.0131    5.8921   -1.2757 H         1 ACP         0.1012
     36 H5'1       -0.2034    3.2760    1.4766 H         1 ACP         0.0481
     37 H5'2       -1.7842    2.7761    2.1321 H         1 ACP         0.0481
     38 H4'         0.0403    1.7078    3.4343 H         1 ACP         0.0904
     39 H3'         1.5906    1.4859    1.1353 H         1 ACP         0.0809
     40 HO3'        2.6839   -0.1150    2.2479 H         1 ACP         0.4528
     41 H2'        -0.0017    0.0018    0.0005 H         1 ACP         0.0594
     42 HO2'        2.0953   -0.9375    0.0709 H         1 ACP         0.4344
     43 H1'        -0.1998   -1.6319    2.6178 H         1 ACP         0.1127
     44 H8         -3.0609    0.0200    0.8250 H         1 ACP         0.1050
     45 HN61       -5.2046   -3.9433   -0.8775 H         1 ACP         0.4211
     46 HN62       -4.7849   -5.6332   -0.9625 H         1 ACP         0.4211
     47 H2         -0.6318   -5.9307    0.9993 H         1 ACP         0.0375
@<TRIPOS>BOND
     1    1    2 2
     2    1    3 1
     3    1    4 1
     4    1    8 1
     5    4   32 1
     6    5    6 2
     7    5    7 1
     8    5    8 1
     9    5   12 1
    10    7   33 1
    11    8   34 1
    12    8   35 1
    13    9   10 2
    14    9   11 1
    15    9   12 1
    16    9   13 1
    17   13   14 1
    18   14   15 1
    19   14   36 1
    20   14   37 1
    21   15   16 1
    22   15   17 1
    23   15   38 1
    24   16   21 1
    25   17   18 1
    26   17   19 1
    27   17   39 1
    28   18   40 1
    29   19   20 1
    30   19   21 1
    31   19   41 1
    32   20   42 1
    33   21   22 1
    34   21   43 1
    35   22   23 ar
    36   22   31 ar
    37   23   24 ar
    38   23   44 1
    39   24   25 ar
    40   25   26 ar
    41   25   31 ar
    42   26   27 1
    43   26   28 ar
    44   27   45 1
    45   27   46 1
    46   28   29 ar
    47   29   30 ar
    48   29   47 1
    49   30   31 ar
@<TRIPOS>SUBSTRUCTURE
     1 ACP         1 GROUP 0 A     ****
@<TRIPOS>MOLECULE
[[[5-(6-aminopurin-9-yl)-3,4-dihydroxy-tetrahydrofuran-2-yl]methoxy-oxido-phosphoryl]oxy-hydroxy-phosphoryl]methyl-hydroxy-phosphinate
   47    49     1     0     0
SMALL
USER_CHARGES

@<TRIPOS>ATOM
      1 PG          6.9295    6.4407   -2.6163 P.3       1 ACP         1.3516
      2 O1G         5.8230    6.3394   -1.5923 O.co2     1 ACP        -0.8379
      3 O2G         6.6531    6.4785   -4.1016 O.co2     1 ACP        -0.8379
      4 O3G         7.9241    7.6709   -2.2193 O.3       1 ACP        -0.7980
      5 PB          7.6096    3.3046   -2.3782 P.3       1 ACP         1.7688
      6 O1B         8.7100    2.3270   -2.0928 O.2       1 ACP        -0.9167
      7 O2B         6.9327    3.1579   -3.8383 O.3       1 ACP        -0.8201
      8 C3B         8.0974    5.0414   -2.3046 C.3       1 ACP        -0.6097
      9 PA          6.2488    3.4955    0.2423 P.3       1 ACP         1.5979
     10 O1A         6.5597    4.9479    0.5318 O.co2     1 ACP        -0.8617
     11 O2A         6.9993    2.3884    0.9499 O.co2     1 ACP        -0.8617
     12 O3A         6.3499    3.2611   -1.3696 O.3       1 ACP        -0.8283
     13 O5'         4.6405    3.2701    0.4379 O.3       1 ACP        -0.5783
     14 C5'         4.0922    1.9801    0.2227 C.3       1 ACP         0.1980
     15 C4'         2.5944    2.0310    0.4653 C.3       1 ACP         0.0815
     16 O4'         1.9327    2.5740   -0.6889 O.3       1 ACP        -0.4127
     17 C3'         1.9685    0.6634    0.6767 C.3       1 ACP         0.0890
     18 O3'         2.1425    0.1975    1.9977 O.3       1 ACP        -0.6221
     19 C2'         0.5176    0.9128    0.3099 C.3       1 ACP         0.1067
     20 O2'        -0.2103    1.4454    1.4152 O.3       1 ACP        -0.6053
     21 C1'         0.6219    1.9765   -0.7844 C.3       1 ACP         0.4223
     22 N9          0.4237    1.4496   -2.1357 N.pl3     1 ACP        -0.6834
     23 C8         -0.7736    1.3475   -2.7932 C.ar      1 ACP         0.5614
     24 N7         -0.6356    0.8373   -3.9991 N.2       1 ACP        -0.5751
     25 C5          0.7095    0.5981   -4.1281 C.ar      1 ACP        -0.2117
     26 C6          1.4733    0.0704   -5.1643 C.ar      1 ACP         0.7177
     27 N6          0.8693   -0.3355   -6.3666 N.pl3     1 ACP        -0.9401
     28 N1          2.8130   -0.0482   -5.0009 N.ar      1 ACP        -0.8008
     29 C2          3.3380    0.3602   -3.8204 C.ar      1 ACP         0.6565
     30 N3          2.7052    0.8841   -2.7480 N.ar      1 ACP        -0.7061
     31 C4          1.3867    0.9726   -2.9785 C.ar      1 ACP         0.5715
     32 HOG3        7.5496    8.5758   -2.1637 H         1 ACP         0.4226
     33 HOB2        6.5009    2.3107   -4.0787 H         1 ACP         0.4482
     34 H3B1        8.9303    5.1815   -3.0030 H         1 ACP         0.1012
     35 H3B2        8.4901    5.2201   -1.2979 H         1 ACP         0.1012
     36 H5'1        4.3030    1.6731   -0.8066 H         1 ACP         0.0481
     37 H5'2        4.5679    1.2740    0.9106 H         1 ACP         0.0481
     38 H4'         2.3751    2.7029    1.3156 H         1 ACP         0.0904
     39 H3'         2.4336   -0.1217   -0.0015 H         1 ACP         0.0809
     40 HO3'        1.7160   -0.6716    2.0397 H         1 ACP         0.4528
     41 H2'         0.0316    0.0155   -0.0339 H         1 ACP         0.0594
     42 HO2'       -0.1608    0.7921    2.1351 H         1 ACP         0.4344
     43 H1'        -0.1474    2.7798   -0.6651 H         1 ACP         0.1127
     44 H8         -1.7070    1.6599   -2.3451 H         1 ACP         0.1050
     45 HN61       -0.1277   -0.2866   -6.4583 H         1 ACP         0.4211
     46 HN62        1.4308   -0.7566   -7.0823 H         1 ACP         0.4211
     47 H2          4.4130    0.2505   -3.7241 H         1 ACP         0.0375
@<TRIPOS>BOND
     1    1    2 2
     2    1    3 1
     3    1    4 1
     4    1    8 1
     5    4   32 1
     6    5    6 2
     7    5    7 1
     8    5    8 1
     9    5   12 1
    10    7   33 1
    11    8   34 1
    12    8   35 1
    13    9   10 2
    14    9   11 1
    15    9   12 1
    16    9   13 1
    17   13   14 1
    18   14   15 1
    19   14   36 1
    20   14   37 1
    21   15   16 1
    22   15   17 1
    23   15   38 1
    24   16   21 1
    25   17   18 1
    26   17   19 1
    27   17   39 1
    28   18   40 1
    29   19   20 1
    30   19   21 1
    31   19   41 1
    32   20   42 1
    33   21   22 1
    34   21   43 1
    35   22   23 ar
    36   22   31 ar
    37   23   24 ar
    38   23   44 1
    39   24   25 ar
    40   25   26 ar
    41   25   31 ar
    42   26   27 1
    43   26   28 ar
    44   27   45 1
    45   27   46 1
    46   28   29 ar
    47   29   30 ar
    48   29   47 1
    49   30   31 ar
@<TRIPOS>SUBSTRUCTURE
     1 ACP         1 GROUP 0 A     ****
@<TRIPOS>MOLECULE
[[[5-(6-aminopurin-9-yl)-3,4-dihydroxy-tetrahydrofuran-2-yl]methoxy-oxido-phosphoryl]oxy-hydroxy-phosphoryl]methyl-hydroxy-phosphinate
   47    49     1     0     0
SMALL
USER_CHARGES

@<TRIPOS>ATOM
      1 PG          7.8064    1.4364   -2.5227 P.3       1 ACP         1.3516
      2 O1G         6.6504    2.1851   -1.9010 O.co2     1 ACP        -0.8379
      3 O2G         7.6248    0.5043   -3.6984 O.co2     1 ACP        -0.8379
      4 O3G         9.0189    2.4796   -2.8412 O.3       1 ACP        -0.7980
      5 PB          7.7838   -0.7860   -0.1958 P.3       1 ACP         1.7688
      6 O1B         8.6318   -1.4479    0.8487 O.2       1 ACP        -0.9167
      7 O2B         7.1707   -1.7866   -1.3069 O.3       1 ACP        -0.8201
      8 C3B         8.6283    0.4749   -1.1740 C.3       1 ACP        -0.6097
      9 PA          6.3567    1.2769    1.3738 P.3       1 ACP         1.5979
     10 O1A         6.9560    2.4959    0.7069 O.co2     1 ACP        -0.8617
     11 O2A         6.8130    0.8461    2.7507 O.co2     1 ACP        -0.8617
     12 O3A         6.4917    0.0137    0.3492 O.3       1 ACP        -0.8283
     13 O5'         4.7294    1.4426    1.3699 O.3       1 ACP        -0.5783
     14 C5'         4.0922    1.9801    0.2227 C.3       1 ACP         0.1980
     15 C4'         2.5944    2.0310    0.4653 C.3       1 ACP         0.0815
     16 O4'         1.9327    2.5740   -0.6889 O.3       1 ACP        -0.4127
     17 C3'         1.9685    0.6634    0.6767 C.3       1 ACP         0.0890
     18 O3'         2.1425    0.1975    1.9977 O.3       1 ACP        -0.6221
     19 C2'         0.5176    0.9128    0.3099 C.3       1 ACP         0.1067
     20 O2'        -0.2103    1.4454    1.4152 O.3       1 ACP        -0.6053
     21 C1'         0.6219    1.9765   -0.7844 C.3       1 ACP         0.4223
     22 N9          0.4237    1.4496   -2.1357 N.pl3     1 ACP        -0.6834
     23 C8          1.4026    0.9717   -2.9660 C.ar      1 ACP         0.5614
     24 N7          0.9183    0.5619   -4.1197 N.2       1 ACP        -0.5751
     25 C5         -0.4330    0.7845   -4.0331 C.ar      1 ACP        -0.2117
     26 C6         -1.4794    0.5615   -4.9225 C.ar      1 ACP         0.7177
     27 N6         -1.2378    0.0044   -6.1899 N.pl3     1 ACP        -0.9401
     28 N1         -2.7406    0.8885   -4.5512 N.ar      1 ACP        -0.8008
     29 C2         -2.9113    1.4216   -3.3172 C.ar      1 ACP         0.6565
     30 N3         -1.9824    1.6843   -2.3721 N.ar      1 ACP        -0.7061
     31 C4         -0.7613    1.3370   -2.8054 C.ar      1 ACP         0.5715
     32 HOG3        8.8450    3.2263   -3.4532 H         1 ACP         0.4226
     33 HOB2        6.5807   -2.5145   -1.0167 H         1 ACP         0.4482
     34 H3B1        9.5081    0.0066   -1.6296 H         1 ACP         0.1012
     35 H3B2        8.9954    1.2308   -0.4716 H         1 ACP         0.1012
     36 H5'1        4.4844    2.9853    0.0382 H         1 ACP         0.0481
     37 H5'2        4.3192    1.3445   -0.6390 H         1 ACP         0.0481
     38 H4'         2.3751    2.7029    1.3156 H         1 ACP         0.0904
     39 H3'         2.4336   -0.1217   -0.0015 H         1 ACP         0.0809
     40 HO3'        3.0987    0.1465    2.1461 H         1 ACP         0.4528
     41 H2'         0.0316    0.0155   -0.0339 H         1 ACP         0.0594
     42 HO2'       -0.1608    0.7921    2.1351 H         1 ACP         0.4344
     43 H1'        -0.1474    2.7798   -0.6651 H         1 ACP         0.1127
     44 H8          2.4442    0.9470   -2.6763 H         1 ACP         0.1050
     45 HN61       -0.2955   -0.1901   -6.4713 H         1 ACP         0.4211
     46 HN62       -1.9987   -0.1045   -6.8334 H         1 ACP         0.4211
     47 H2         -3.9335    1.6716   -3.0534 H         1 ACP         0.0375
@<TRIPOS>BOND
     1    1    2 2
     2    1    3 1
     3    1    4 1
     4    1    8 1
     5    4   32 1
     6    5    6 2
     7    5    7 1
     8    5    8 1
     9    5   12 1
    10    7   33 1
    11    8   34 1
    12    8   35 1
    13    9   10 2
    14    9   11 1
    15    9   12 1
    16    9   13 1
    17   13   14 1
    18   14   15 1
    19   14   36 1
    20   14   37 1
    21   15   16 1
    22   15   17 1
    23   15   38 1
    24   16   21 1
    25   17   18 1
    26   17   19 1
    27   17   39 1
    28   18   40 1
    29   19   20 1
    30   19   21 1
    31   19   41 1
    32   20   42 1
    33   21   22 1
    34   21   43 1
    35   22   23 ar
    36   22   31 ar
    37   23   24 ar
    38   23   44 1
    39   24   25 ar
    40   25   26 ar
    41   25   31 ar
    42   26   27 1
    43   26   28 ar
    44   27   45 1
    45   27   46 1
    46   28   29 ar
    47   29   30 ar
    48   29   47 1
    49   30   31 ar
@<TRIPOS>SUBSTRUCTURE
     1 ACP         1 GROUP 0 A     ****
@<TRIPOS>MOLECULE
[[[5-(6-aminopurin-9-yl)-3,4-dihydroxy-tetrahydrofuran-2-yl]methoxy-oxido-phosphoryl]oxy-hydroxy-phosphoryl]methyl-hydroxy-phosphinate
   47    49     1     0     0
SMALL
USER_CHARGES

@<TRIPOS>ATOM
      1 PG          1.9654    5.8708    3.5399 P.3       1 ACP         1.3516
      2 O1G         2.5104    4.4764    3.7445 O.co2     1 ACP        -0.8379
      3 O2G         2.8242    7.1040    3.6995 O.co2     1 ACP        -0.8379
      4 O3G         1.1776    5.9407    2.1135 O.3       1 ACP        -0.7980
      5 PB         -0.9612    5.0147    4.5677 P.3       1 ACP         1.7688
      6 O1B        -2.0304    5.3363    5.5685 O.2       1 ACP        -0.9167
      7 O2B        -0.3691    3.5142    4.6651 O.3       1 ACP        -0.8201
      8 C3B         0.5070    6.0614    4.6605 C.3       1 ACP        -0.6097
      9 PA         -2.5403    4.4097    2.1396 P.3       1 ACP         1.5979
     10 O1A        -2.3645    4.8018    0.6886 O.co2     1 ACP        -0.8617
     11 O2A        -3.8743    4.5856    2.8318 O.co2     1 ACP        -0.8617
     12 O3A        -1.3835    5.1562    3.0160 O.3       1 ACP        -0.8283
     13 O5'        -2.0402    2.8619    2.3131 O.3       1 ACP        -0.5783
     14 C5'        -0.8811    2.4285    1.6206 C.3       1 ACP         0.1980
     15 C4'        -0.1994    1.3333    2.4288 C.3       1 ACP         0.0815
     16 O4'        -1.1285    0.2356    2.5840 O.3       1 ACP        -0.4127
     17 C3'         1.0324    0.7610    1.7344 C.3       1 ACP         0.0890
     18 O3'         1.9175    0.2377    2.7247 O.3       1 ACP        -0.6221
     19 C2'         0.4468   -0.3802    0.9263 C.3       1 ACP         0.1067
     20 O2'         1.3993   -1.3703    0.5961 O.3       1 ACP        -0.6053
     21 C1'        -0.6159   -0.9100    1.8769 C.3       1 ACP         0.4223
     22 N9         -1.7127   -1.6108    1.2130 N.pl3     1 ACP        -0.6834
     23 C8         -2.8641   -1.0399    0.7392 C.ar      1 ACP         0.5614
     24 N7         -3.6659   -1.9257    0.1858 N.2       1 ACP        -0.5751
     25 C5         -3.0053   -3.1223    0.3069 C.ar      1 ACP        -0.2117
     26 C6         -3.3321   -4.4178   -0.0813 C.ar      1 ACP         0.7177
     27 N6         -4.5476   -4.6866   -0.7335 N.pl3     1 ACP        -0.9401
     28 N1         -2.4608   -5.4225    0.1773 N.ar      1 ACP        -0.8008
     29 C2         -1.3053   -5.1020    0.8081 C.ar      1 ACP         0.6565
     30 N3         -0.8788   -3.8921    1.2315 N.ar      1 ACP        -0.7061
     31 C4         -1.7870   -2.9477    0.9438 C.ar      1 ACP         0.5715
     32 HOG3        1.6774    5.7434    1.2929 H         1 ACP         0.4226
     33 HOB2       -0.9776    2.7546    4.5434 H         1 ACP         0.4482
     34 H3B1        0.8991    5.9924    5.6815 H         1 ACP         0.1012
     35 H3B2        0.1722    7.0941    4.5152 H         1 ACP         0.1012
     36 H5'1       -1.1770    2.0503    0.6369 H         1 ACP         0.0481
     37 H5'2       -0.2082    3.2815    1.4877 H         1 ACP         0.0481
     38 H4'         0.0403    1.7078    3.4343 H         1 ACP         0.0904
     39 H3'         1.5906    1.4859    1.1353 H         1 ACP         0.0809
     40 HO3'        2.1521    0.9800    3.3017 H         1 ACP         0.4528
     41 H2'        -0.0017    0.0018    0.0005 H         1 ACP         0.0594
     42 HO2'        0.9369   -2.0558    0.0825 H         1 ACP         0.4344
     43 H1'        -0.1998   -1.6319    2.6178 H         1 ACP         0.1127
     44 H8         -3.0609    0.0200    0.8250 H         1 ACP         0.1050
     45 HN61       -5.2046   -3.9433   -0.8775 H         1 ACP         0.4211
     46 HN62       -4.7849   -5.6332   -0.9625 H         1 ACP         0.4211
     47 H2         -0.6318   -5.9307    0.9993 H         1 ACP         0.0375
@<TRIPOS>BOND
     1    1    2 2
     2    1    3 1
     3    1    4 1
     4    1    8 1
     5    4   32 1
     6    5    6 2
     7    5    7 1
     8    5    8 1
     9    5   12 1
    10    7   33 1
    11    8   34 1
    12    8   35 1
    13    9   10 2
    14    9   11 1
    15    9   12 1
    16    9   13 1
    17   13   14 1
    18   14   15 1
    19   14   36 1
    20   14   37 1
    21   15   16 1
    22   15   17 1
    23   15   38 1
    24   16   21 1
    25   17   18 1
    26   17   19 1
    27   17   39 1
    28   18   40 1
    29   19   20 1
    30   19   21 1
    31   19   41 1
    32   20   42 1
    33   21   22 1
    34   21   43 1
    35   22   23 ar
    36   22   31 ar
    37   23   24 ar
    38   23   44 1
    39   24   25 ar
    40   25   26 ar
    41   25   31 ar
    42   26   27 1
    43   26   28 ar
    44   27   45 1
    45   27   46 1
    46   28   29 ar
    47   29   30 ar
    48   29   47 1
    49   30   31 ar
@<TRIPOS>SUBSTRUCTURE
     1 ACP         1 GROUP 0 A     ****
@<TRIPOS>MOLECULE
[[[5-(6-aminopurin-9-yl)-3,4-dihydroxy-tetrahydrofuran-2-yl]methoxy-oxido-phosphoryl]oxy-hydroxy-phosphoryl]methyl-hydroxy-phosphinate
   47    49     1     0     0
SMALL
USER_CHARGES

@<TRIPOS>ATOM
      1 PG          0.2869   -2.4621   -3.4731 P.3       1 ACP         1.3516
      2 O1G        -0.6023   -1.2507   -3.3144 O.co2     1 ACP        -0.8379
      3 O2G         0.5154   -3.4476   -2.3505 O.co2     1 ACP        -0.8379
      4 O3G        -0.1349   -3.2703   -4.8255 O.3       1 ACP        -0.7980
      5 PB          2.9571   -0.7126   -3.0689 P.3       1 ACP         1.7688
      6 O1B         4.2686   -0.3496   -3.6986 O.2       1 ACP        -0.9167
      7 O2B         3.0722   -1.4216   -1.6213 O.3       1 ACP        -0.8201
      8 C3B         1.9444   -1.8590   -4.0281 C.3       1 ACP        -0.6097
      9 PA          1.2408    1.5709   -3.8403 P.3       1 ACP         1.5979
     10 O1A         0.2698    0.8126   -4.7190 O.co2     1 ACP        -0.8617
     11 O2A         2.3152    2.4446   -4.4502 O.co2     1 ACP        -0.8617
     12 O3A         1.9365    0.5115   -2.8122 O.3       1 ACP        -0.8283
     13 O5'         0.3757    2.4481   -2.7643 O.3       1 ACP        -0.5783
     14 C5'        -0.7794    1.8744   -2.1748 C.3       1 ACP         0.1980
     15 C4'        -0.9699    2.4597   -0.7819 C.3       1 ACP         0.0815
     16 O4'        -2.1475    1.8640   -0.2014 O.3       1 ACP        -0.4127
     17 C3'         0.1697    2.1347    0.1695 C.3       1 ACP         0.0890
     18 O3'         0.1809    3.0982    1.2223 O.3       1 ACP        -0.6221
     19 C2'        -0.2543    0.7880    0.7187 C.3       1 ACP         0.1067
     20 O2'         0.3606    0.4944    1.9582 O.3       1 ACP        -0.6053
     21 C1'        -1.7682    0.9516    0.8548 C.3       1 ACP         0.4223
     22 N9         -2.5926   -0.2553    0.7436 N.pl3     1 ACP        -0.6834
     23 C8         -3.5599   -0.4866   -0.1983 C.ar      1 ACP         0.5614
     24 N7         -4.1294   -1.6639   -0.0461 N.2       1 ACP        -0.5751
     25 C5         -3.5041   -2.2191    1.0420 C.ar      1 ACP        -0.2117
     26 C6         -3.6605   -3.4390    1.6925 C.ar      1 ACP         0.7177
     27 N6         -4.6108   -4.3735    1.2468 N.pl3     1 ACP        -0.9401
     28 N1         -2.8820   -3.7179    2.7657 N.ar      1 ACP        -0.8008
     29 C2         -1.9837   -2.7784    3.1481 C.ar      1 ACP         0.6565
     30 N3         -1.7408   -1.5668    2.6022 N.ar      1 ACP        -0.7061
     31 C4         -2.5438   -1.3578    1.5483 C.ar      1 ACP         0.5715
     32 HOG3       -1.0492   -3.6187   -4.8963 H         1 ACP         0.4226
     33 HOB2        3.5070   -0.9365   -0.8880 H         1 ACP         0.4482
     34 H3B1        2.5457   -2.7560   -4.2145 H         1 ACP         0.1012
     35 H3B2        1.7626   -1.3877   -4.9999 H         1 ACP         0.1012
     36 H5'1       -1.6463    2.0967   -2.8051 H         1 ACP         0.0481
     37 H5'2       -0.6469    0.7893   -2.1194 H         1 ACP         0.0481
     38 H4'        -1.1469    3.5409   -0.8522 H         1 ACP         0.0904
     39 H3'         1.1601    2.1310   -0.2934 H         1 ACP         0.0809
     40 HO3'        0.9173    2.8584    1.8048 H         1 ACP         0.4528
     41 H2'        -0.0024   -0.0091    0.0062 H         1 ACP         0.0594
     42 HO2'        1.3225    0.4909    1.8095 H         1 ACP         0.4344
     43 H1'        -2.0584    1.4255    1.8301 H         1 ACP         0.1127
     44 H8         -3.8030    0.2355   -0.9657 H         1 ACP         0.1050
     45 HN61       -5.2130   -4.1372    0.4810 H         1 ACP         0.4211
     46 HN62       -4.7404   -5.2263    1.7576 H         1 ACP         0.4211
     47 H2         -1.3778   -3.0348    4.0107 H         1 ACP         0.0375
@<TRIPOS>BOND
     1    1    2 2
     2    1    3 1
     3    1    4 1
     4    1    8 1
     5    4   32 1
     6    5    6 2
     7    5    7 1
     8    5    8 1
     9    5   12 1
    10    7   33 1
    11    8   34 1
    12    8   35 1
    13    9   10 2
    14    9   11 1
    15    9   12 1
    16    9   13 1
    17   13   14 1
    18   14   15 1
    19   14   36 1
    20   14   37 1
    21   15   16 1
    22   15   17 1
    23   15   38 1
    24   16   21 1
    25   17   18 1
    26   17   19 1
    27   17   39 1
    28   18   40 1
    29   19   20 1
    30   19   21 1
    31   19   41 1
    32   20   42 1
    33   21   22 1
    34   21   43 1
    35   22   23 ar
    36   22   31 ar
    37   23   24 ar
    38   23   44 1
    39   24   25 ar
    40   25   26 ar
    41   25   31 ar
    42   26   27 1
    43   26   28 ar
    44   27   45 1
    45   27   46 1
    46   28   29 ar
    47   29   30 ar
    48   29   47 1
    49   30   31 ar
@<TRIPOS>SUBSTRUCTURE
     1 ACP         1 GROUP 0 A     ****
@<TRIPOS>MOLECULE
[[[5-(6-aminopurin-9-yl)-3,4-dihydroxy-tetrahydrofuran-2-yl]methoxy-oxido-phosphoryl]oxy-hydroxy-phosphoryl]methyl-hydroxy-phosphinate
   47    49     1     0     0
SMALL
USER_CHARGES

@<TRIPOS>ATOM
      1 PG          1.9654    5.8708    3.5399 P.3       1 ACP         1.3516
      2 O1G         1.4747    6.0727    2.1250 O.co2     1 ACP        -0.8379
      3 O2G         2.7055    4.6243    3.9668 O.co2     1 ACP        -0.8379
      4 O3G         2.8023    7.1872    4.0160 O.3       1 ACP        -0.7980
      5 PB         -0.9612    5.0147    4.5677 P.3       1 ACP         1.7688
      6 O1B        -2.0304    5.3363    5.5685 O.2       1 ACP        -0.9167
      7 O2B        -0.3691    3.5142    4.6651 O.3       1 ACP        -0.8201
      8 C3B         0.5070    6.0614    4.6605 C.3       1 ACP        -0.6097
      9 PA         -2.5403    4.4097    2.1396 P.3       1 ACP         1.5979
     10 O1A        -2.3645    4.8018    0.6886 O.co2     1 ACP        -0.8617
     11 O2A        -3.8743    4.5856    2.8318 O.co2     1 ACP        -0.8617
     12 O3A        -1.3835    5.1562    3.0160 O.3       1 ACP        -0.8283
     13 O5'        -2.0402    2.8619    2.3131 O.3       1 ACP        -0.5783
     14 C5'        -0.8811    2.4285    1.6206 C.3       1 ACP         0.1980
     15 C4'        -0.1994    1.3333    2.4288 C.3       1 ACP         0.0815
     16 O4'        -1.1285    0.2356    2.5840 O.3       1 ACP        -0.4127
     17 C3'         1.0324    0.7610    1.7344 C.3       1 ACP         0.0890
     18 O3'         1.9175    0.2377    2.7247 O.3       1 ACP        -0.6221
     19 C2'         0.4468   -0.3802    0.9263 C.3       1 ACP         0.1067
     20 O2'         1.3993   -1.3703    0.5961 O.3       1 ACP        -0.6053
     21 C1'        -0.6159   -0.9100    1.8769 C.3       1 ACP         0.4223
     22 N9         -1.7127   -1.6108    1.2130 N.pl3     1 ACP        -0.6834
     23 C8         -1.7712   -2.9546    0.9544 C.ar      1 ACP         0.5614
     24 N7         -2.8883   -3.2948    0.3462 N.2       1 ACP        -0.5751
     25 C5         -3.5834   -2.1202    0.2043 C.ar      1 ACP        -0.2117
     26 C6         -4.8225   -1.8251   -0.3554 C.ar      1 ACP         0.7177
     27 N6         -5.6154   -2.8395   -0.9189 N.pl3     1 ACP        -0.9401
     28 N1         -5.2589   -0.5425   -0.3507 N.ar      1 ACP        -0.8008
     29 C2         -4.4510    0.3913    0.2069 C.ar      1 ACP         0.6565
     30 N3         -3.2368    0.2296    0.7767 N.ar      1 ACP        -0.7061
     31 C4         -2.8684   -1.0596    0.7376 C.ar      1 ACP         0.5715
     32 HOG3        3.6010    7.4430    3.5072 H         1 ACP         0.4226
     33 HOB2       -0.9776    2.7546    4.5434 H         1 ACP         0.4482
     34 H3B1        0.8991    5.9924    5.6815 H         1 ACP         0.1012
     35 H3B2        0.1722    7.0941    4.5152 H         1 ACP         0.1012
     36 H5'1       -1.1770    2.0503    0.6369 H         1 ACP         0.0481
     37 H5'2       -0.2082    3.2815    1.4877 H         1 ACP         0.0481
     38 H4'         0.0403    1.7078    3.4343 H         1 ACP         0.0904
     39 H3'         1.5906    1.4859    1.1353 H         1 ACP         0.0809
     40 HO3'        2.1521    0.9800    3.3017 H         1 ACP         0.4528
     41 H2'        -0.0017    0.0018    0.0005 H         1 ACP         0.0594
     42 HO2'        0.9369   -2.0558    0.0825 H         1 ACP         0.4344
     43 H1'        -0.1998   -1.6319    2.6178 H         1 ACP         0.1127
     44 H8         -0.9745   -3.6312    1.2318 H         1 ACP         0.1050
     45 HN61       -5.2619   -3.7766   -0.9586 H         1 ACP         0.4211
     46 HN62       -6.4834   -2.5990   -1.3590 H         1 ACP         0.4211
     47 H2         -4.8317    1.4071    0.1930 H         1 ACP         0.0375
@<TRIPOS>BOND
     1    1    2 2
     2    1    3 1
     3    1    4 1
     4    1    8 1
     5    4   32 1
     6    5    6 2
     7    5    7 1
     8    5    8 1
     9    5   12 1
    10    7   33 1
    11    8   34 1
    12    8   35 1
    13    9   10 2
    14    9   11 1
    15    9   12 1
    16    9   13 1
    17   13   14 1
    18   14   15 1
    19   14   36 1
    20   14   37 1
    21   15   16 1
    22   15   17 1
    23   15   38 1
    24   16   21 1
    25   17   18 1
    26   17   19 1
    27   17   39 1
    28   18   40 1
    29   19   20 1
    30   19   21 1
    31   19   41 1
    32   20   42 1
    33   21   22 1
    34   21   43 1
    35   22   23 ar
    36   22   31 ar
    37   23   24 ar
    38   23   44 1
    39   24   25 ar
    40   25   26 ar
    41   25   31 ar
    42   26   27 1
    43   26   28 ar
    44   27   45 1
    45   27   46 1
    46   28   29 ar
    47   29   30 ar
    48   29   47 1
    49   30   31 ar
@<TRIPOS>SUBSTRUCTURE
     1 ACP         1 GROUP 0 A     ****
@<TRIPOS>MOLECULE
[[[5-(6-aminopurin-9-yl)-3,4-dihydroxy-tetrahydrofuran-2-yl]methoxy-oxido-phosphoryl]oxy-hydroxy-phosphoryl]methyl-hydroxy-phosphinate
   47    49     1     0     0
SMALL
USER_CHARGES

@<TRIPOS>ATOM
      1 PG          1.4311   -1.9918   -3.5143 P.3       1 ACP         1.3516
      2 O1G         0.2319   -1.1081   -3.2602 O.co2     1 ACP        -0.8379
      3 O2G         2.0970   -2.7840   -2.4131 O.co2     1 ACP        -0.8379
      4 O3G         1.1210   -2.9757   -4.7775 O.3       1 ACP        -0.7980
      5 PB          3.4408    0.5213   -3.5212 P.3       1 ACP         1.7688
      6 O1B         4.4813    1.2318   -4.3340 O.2       1 ACP        -0.9167
      7 O2B         3.9532   -0.0230   -2.0884 O.3       1 ACP        -0.8201
      8 C3B         2.7306   -0.9414   -4.3061 C.3       1 ACP        -0.6097
      9 PA          1.0092    2.1061   -4.0969 P.3       1 ACP         1.5979
     10 O1A         0.2259    1.0296   -4.8162 O.co2     1 ACP        -0.8617
     11 O2A         1.6681    3.2289   -4.8682 O.co2     1 ACP        -0.8617
     12 O3A         2.1262    1.3826   -3.1522 O.3       1 ACP        -0.8283
     13 O5'         0.0525    2.7389   -2.9307 O.3       1 ACP        -0.5783
     14 C5'        -0.7794    1.8744   -2.1748 C.3       1 ACP         0.1980
     15 C4'        -0.9699    2.4597   -0.7819 C.3       1 ACP         0.0815
     16 O4'        -2.1475    1.8640   -0.2014 O.3       1 ACP        -0.4127
     17 C3'         0.1697    2.1347    0.1695 C.3       1 ACP         0.0890
     18 O3'         0.1809    3.0982    1.2223 O.3       1 ACP        -0.6221
     19 C2'        -0.2543    0.7880    0.7187 C.3       1 ACP         0.1067
     20 O2'         0.3606    0.4944    1.9582 O.3       1 ACP        -0.6053
     21 C1'        -1.7682    0.9516    0.8548 C.3       1 ACP         0.4223
     22 N9         -2.5926   -0.2553    0.7436 N.pl3     1 ACP        -0.6834
     23 C8         -2.6464   -1.0979   -0.3350 C.ar      1 ACP         0.5614
     24 N7         -3.4765   -2.1012   -0.1401 N.2       1 ACP        -0.5751
     25 C5         -3.9826   -1.8994    1.1194 C.ar      1 ACP        -0.2117
     26 C6         -4.8981   -2.6116    1.8877 C.ar      1 ACP         0.7177
     27 N6         -5.4931   -3.7842    1.3916 N.pl3     1 ACP        -0.9401
     28 N1         -5.2111   -2.1602    3.1262 N.ar      1 ACP        -0.8008
     29 C2         -4.6051   -1.0248    3.5500 C.ar      1 ACP         0.6565
     30 N3         -3.7075   -0.2510    2.9016 N.ar      1 ACP        -0.7061
     31 C4         -3.4448   -0.7551    1.6866 C.ar      1 ACP         0.5715
     32 HOG3        0.3622   -3.5941   -4.7136 H         1 ACP         0.4226
     33 HOB2        4.3003    0.6189   -1.4330 H         1 ACP         0.4482
     34 H3B1        3.5562   -1.6179   -4.5545 H         1 ACP         0.1012
     35 H3B2        2.2898   -0.6129   -5.2534 H         1 ACP         0.1012
     36 H5'1       -1.7435    1.7763   -2.6838 H         1 ACP         0.0481
     37 H5'2       -0.3053    0.8897   -2.1148 H         1 ACP         0.0481
     38 H4'        -1.1469    3.5409   -0.8522 H         1 ACP         0.0904
     39 H3'         1.1601    2.1310   -0.2934 H         1 ACP         0.0809
     40 HO3'        0.9173    2.8584    1.8048 H         1 ACP         0.4528
     41 H2'        -0.0024   -0.0091    0.0062 H         1 ACP         0.0594
     42 HO2'        0.0384   -0.3797    2.2403 H         1 ACP         0.4344
     43 H1'        -2.0584    1.4255    1.8301 H         1 ACP         0.1127
     44 H8         -2.0609   -0.9301   -1.2286 H         1 ACP         0.1050
     45 HN61       -5.2894   -4.0827    0.4566 H         1 ACP         0.4211
     46 HN62       -6.1852   -4.2564    1.9420 H         1 ACP         0.4211
     47 H2         -4.8793   -0.6924    4.5457 H         1 ACP         0.0375
@<TRIPOS>BOND
     1    1    2 2
     2    1    3 1
     3    1    4 1
     4    1    8 1
     5    4   32 1
     6    5    6 2
     7    5    7 1
     8    5    8 1
     9    5   12 1
    10    7   33 1
    11    8   34 1
    12    8   35 1
    13    9   10 2
    14    9   11 1
    15    9   12 1
    16    9   13 1
    17   13   14 1
    18   14   15 1
    19   14   36 1
    20   14   37 1
    21   15   16 1
    22   15   17 1
    23   15   38 1
    24   16   21 1
    25   17   18 1
    26   17   19 1
    27   17   39 1
    28   18   40 1
    29   19   20 1
    30   19   21 1
    31   19   41 1
    32   20   42 1
    33   21   22 1
    34   21   43 1
    35   22   23 ar
    36   22   31 ar
    37   23   24 ar
    38   23   44 1
    39   24   25 ar
    40   25   26 ar
    41   25   31 ar
    42   26   27 1
    43   26   28 ar
    44   27   45 1
    45   27   46 1
    46   28   29 ar
    47   29   30 ar
    48   29   47 1
    49   30   31 ar
@<TRIPOS>SUBSTRUCTURE
     1 ACP         1 GROUP 0 A     ****
@<TRIPOS>MOLECULE
[[[5-(6-aminopurin-9-yl)-3,4-dihydroxy-tetrahydrofuran-2-yl]methoxy-oxido-phosphoryl]oxy-hydroxy-phosphoryl]methyl-hydroxy-phosphinate
   47    49     1     0     0
SMALL
USER_CHARGES

@<TRIPOS>ATOM
      1 PG          0.4651    7.8959    4.4328 P.3       1 ACP         1.3516
      2 O1G        -0.0752    8.1649    3.0475 O.co2     1 ACP        -0.8379
      3 O2G         1.7949    8.4414    4.8999 O.co2     1 ACP        -0.8379
      4 O3G        -0.6816    8.2447    5.5388 O.3       1 ACP        -0.7980
      5 PB         -0.9612    5.0147    4.5677 P.3       1 ACP         1.7688
      6 O1B        -2.0304    5.3363    5.5685 O.2       1 ACP        -0.9167
      7 O2B        -0.3691    3.5142    4.6651 O.3       1 ACP        -0.8201
      8 C3B         0.5070    6.0614    4.6605 C.3       1 ACP        -0.6097
      9 PA         -2.5403    4.4097    2.1396 P.3       1 ACP         1.5979
     10 O1A        -2.3645    4.8018    0.6886 O.co2     1 ACP        -0.8617
     11 O2A        -3.8743    4.5856    2.8318 O.co2     1 ACP        -0.8617
     12 O3A        -1.3835    5.1562    3.0160 O.3       1 ACP        -0.8283
     13 O5'        -2.0402    2.8619    2.3131 O.3       1 ACP        -0.5783
     14 C5'        -0.8811    2.4285    1.6206 C.3       1 ACP         0.1980
     15 C4'        -0.1994    1.3333    2.4288 C.3       1 ACP         0.0815
     16 O4'        -1.1285    0.2356    2.5840 O.3       1 ACP        -0.4127
     17 C3'         1.0324    0.7610    1.7344 C.3       1 ACP         0.0890
     18 O3'         1.9175    0.2377    2.7247 O.3       1 ACP        -0.6221
     19 C2'         0.4468   -0.3802    0.9263 C.3       1 ACP         0.1067
     20 O2'         1.3993   -1.3703    0.5961 O.3       1 ACP        -0.6053
     21 C1'        -0.6159   -0.9100    1.8769 C.3       1 ACP         0.4223
     22 N9         -1.7127   -1.6108    1.2130 N.pl3     1 ACP        -0.6834
     23 C8         -2.8641   -1.0399    0.7392 C.ar      1 ACP         0.5614
     24 N7         -3.6659   -1.9257    0.1858 N.2       1 ACP        -0.5751
     25 C5         -3.0053   -3.1223    0.3069 C.ar      1 ACP        -0.2117
     26 C6         -3.3321   -4.4178   -0.0813 C.ar      1 ACP         0.7177
     27 N6         -4.5476   -4.6866   -0.7335 N.pl3     1 ACP        -0.9401
     28 N1         -2.4608   -5.4225    0.1773 N.ar      1 ACP        -0.8008
     29 C2         -1.3053   -5.1020    0.8081 C.ar      1 ACP         0.6565
     30 N3         -0.8788   -3.8921    1.2315 N.ar      1 ACP        -0.7061
     31 C4         -1.7870   -2.9477    0.9438 C.ar      1 ACP         0.5715
     32 HOG3       -1.0300    9.1609    5.5785 H         1 ACP         0.4226
     33 HOB2       -0.9776    2.7546    4.5434 H         1 ACP         0.4482
     34 H3B1        1.2307    5.6825    3.9300 H         1 ACP         0.1012
     35 H3B2        0.9446    5.9099    5.6530 H         1 ACP         0.1012
     36 H5'1       -1.1770    2.0503    0.6369 H         1 ACP         0.0481
     37 H5'2       -0.2082    3.2815    1.4877 H         1 ACP         0.0481
     38 H4'         0.0403    1.7078    3.4343 H         1 ACP         0.0904
     39 H3'         1.5906    1.4859    1.1353 H         1 ACP         0.0809
     40 HO3'        2.6839   -0.1150    2.2479 H         1 ACP         0.4528
     41 H2'        -0.0017    0.0018    0.0005 H         1 ACP         0.0594
     42 HO2'        0.9369   -2.0558    0.0825 H         1 ACP         0.4344
     43 H1'        -0.1998   -1.6319    2.6178 H         1 ACP         0.1127
     44 H8         -3.0609    0.0200    0.8250 H         1 ACP         0.1050
     45 HN61       -5.2046   -3.9433   -0.8775 H         1 ACP         0.4211
     46 HN62       -4.7849   -5.6332   -0.9625 H         1 ACP         0.4211
     47 H2         -0.6318   -5.9307    0.9993 H         1 ACP         0.0375
@<TRIPOS>BOND
     1    1    2 2
     2    1    3 1
     3    1    4 1
     4    1    8 1
     5    4   32 1
     6    5    6 2
     7    5    7 1
     8    5    8 1
     9    5   12 1
    10    7   33 1
    11    8   34 1
    12    8   35 1
    13    9   10 2
    14    9   11 1
    15    9   12 1
    16    9   13 1
    17   13   14 1
    18   14   15 1
    19   14   36 1
    20   14   37 1
    21   15   16 1
    22   15   17 1
    23   15   38 1
    24   16   21 1
    25   17   18 1
    26   17   19 1
    27   17   39 1
    28   18   40 1
    29   19   20 1
    30   19   21 1
    31   19   41 1
    32   20   42 1
    33   21   22 1
    34   21   43 1
    35   22   23 ar
    36   22   31 ar
    37   23   24 ar
    38   23   44 1
    39   24   25 ar
    40   25   26 ar
    41   25   31 ar
    42   26   27 1
    43   26   28 ar
    44   27   45 1
    45   27   46 1
    46   28   29 ar
    47   29   30 ar
    48   29   47 1
    49   30   31 ar
@<TRIPOS>SUBSTRUCTURE
     1 ACP         1 GROUP 0 A     ****
@<TRIPOS>MOLECULE
[[[5-(6-aminopurin-9-yl)-3,4-dihydroxy-tetrahydrofuran-2-yl]methoxy-oxido-phosphoryl]oxy-hydroxy-phosphoryl]methyl-hydroxy-phosphinate
   47    49     1     0     0
SMALL
USER_CHARGES

@<TRIPOS>ATOM
      1 PG          0.4651    7.8959    4.4328 P.3       1 ACP         1.3516
      2 O1G        -0.0752    8.1649    3.0475 O.co2     1 ACP        -0.8379
      3 O2G         1.7949    8.4414    4.8999 O.co2     1 ACP        -0.8379
      4 O3G        -0.6816    8.2447    5.5388 O.3       1 ACP        -0.7980
      5 PB         -0.9612    5.0147    4.5677 P.3       1 ACP         1.7688
      6 O1B        -2.0304    5.3363    5.5685 O.2       1 ACP        -0.9167
      7 O2B        -0.3691    3.5142    4.6651 O.3       1 ACP        -0.8201
      8 C3B         0.5070    6.0614    4.6605 C.3       1 ACP        -0.6097
      9 PA         -2.5403    4.4097    2.1396 P.3       1 ACP         1.5979
     10 O1A        -2.3645    4.8018    0.6886 O.co2     1 ACP        -0.8617
     11 O2A        -3.8743    4.5856    2.8318 O.co2     1 ACP        -0.8617
     12 O3A        -1.3835    5.1562    3.0160 O.3       1 ACP        -0.8283
     13 O5'        -2.0402    2.8619    2.3131 O.3       1 ACP        -0.5783
     14 C5'        -0.8811    2.4285    1.6206 C.3       1 ACP         0.1980
     15 C4'        -0.1994    1.3333    2.4288 C.3       1 ACP         0.0815
     16 O4'        -1.1285    0.2356    2.5840 O.3       1 ACP        -0.4127
     17 C3'         1.0324    0.7610    1.7344 C.3       1 ACP         0.0890
     18 O3'         1.9175    0.2377    2.7247 O.3       1 ACP        -0.6221
     19 C2'         0.4468   -0.3802    0.9263 C.3       1 ACP         0.1067
     20 O2'         1.3993   -1.3703    0.5961 O.3       1 ACP        -0.6053
     21 C1'        -0.6159   -0.9100    1.8769 C.3       1 ACP         0.4223
     22 N9         -1.7127   -1.6108    1.2130 N.pl3     1 ACP        -0.6834
     23 C8         -1.7712   -2.9546    0.9544 C.ar      1 ACP         0.5614
     24 N7         -2.8883   -3.2948    0.3462 N.2       1 ACP        -0.5751
     25 C5         -3.5834   -2.1202    0.2043 C.ar      1 ACP        -0.2117
     26 C6         -4.8225   -1.8251   -0.3554 C.ar      1 ACP         0.7177
     27 N6         -5.6154   -2.8395   -0.9189 N.pl3     1 ACP        -0.9401
     28 N1         -5.2589   -0.5425   -0.3507 N.ar      1 ACP        -0.8008
     29 C2         -4.4510    0.3913    0.2069 C.ar      1 ACP         0.6565
     30 N3         -3.2368    0.2296    0.7767 N.ar      1 ACP        -0.7061
     31 C4         -2.8684   -1.0596    0.7376 C.ar      1 ACP         0.5715
     32 HOG3       -1.0300    9.1609    5.5785 H         1 ACP         0.4226
     33 HOB2       -0.9776    2.7546    4.5434 H         1 ACP         0.4482
     34 H3B1        1.2307    5.6825    3.9300 H         1 ACP         0.1012
     35 H3B2        0.9446    5.9099    5.6530 H         1 ACP         0.1012
     36 H5'1       -1.1770    2.0503    0.6369 H         1 ACP         0.0481
     37 H5'2       -0.2082    3.2815    1.4877 H         1 ACP         0.0481
     38 H4'         0.0403    1.7078    3.4343 H         1 ACP         0.0904
     39 H3'         1.5906    1.4859    1.1353 H         1 ACP         0.0809
     40 HO3'        2.6839   -0.1150    2.2479 H         1 ACP         0.4528
     41 H2'        -0.0017    0.0018    0.0005 H         1 ACP         0.0594
     42 HO2'        2.0953   -0.9375    0.0709 H         1 ACP         0.4344
     43 H1'        -0.1998   -1.6319    2.6178 H         1 ACP         0.1127
     44 H8         -0.9745   -3.6312    1.2318 H         1 ACP         0.1050
     45 HN61       -5.2619   -3.7766   -0.9586 H         1 ACP         0.4211
     46 HN62       -6.4834   -2.5990   -1.3590 H         1 ACP         0.4211
     47 H2         -4.8317    1.4071    0.1930 H         1 ACP         0.0375
@<TRIPOS>BOND
     1    1    2 2
     2    1    3 1
     3    1    4 1
     4    1    8 1
     5    4   32 1
     6    5    6 2
     7    5    7 1
     8    5    8 1
     9    5   12 1
    10    7   33 1
    11    8   34 1
    12    8   35 1
    13    9   10 2
    14    9   11 1
    15    9   12 1
    16    9   13 1
    17   13   14 1
    18   14   15 1
    19   14   36 1
    20   14   37 1
    21   15   16 1
    22   15   17 1
    23   15   38 1
    24   16   21 1
    25   17   18 1
    26   17   19 1
    27   17   39 1
    28   18   40 1
    29   19   20 1
    30   19   21 1
    31   19   41 1
    32   20   42 1
    33   21   22 1
    34   21   43 1
    35   22   23 ar
    36   22   31 ar
    37   23   24 ar
    38   23   44 1
    39   24   25 ar
    40   25   26 ar
    41   25   31 ar
    42   26   27 1
    43   26   28 ar
    44   27   45 1
    45   27   46 1
    46   28   29 ar
    47   29   30 ar
    48   29   47 1
    49   30   31 ar
@<TRIPOS>SUBSTRUCTURE
     1 ACP         1 GROUP 0 A     ****
@<TRIPOS>MOLECULE
[[[5-(6-aminopurin-9-yl)-3,4-dihydroxy-tetrahydrofuran-2-yl]methoxy-oxido-phosphoryl]oxy-hydroxy-phosphoryl]methyl-hydroxy-phosphinate
   47    49     1     0     0
SMALL
USER_CHARGES

@<TRIPOS>ATOM
      1 PG          6.5476   -0.5922   -2.7743 P.3       1 ACP         1.3516
      2 O1G         7.6936   -0.3002   -3.7149 O.co2     1 ACP        -0.8379
      3 O2G         5.6708    0.5003   -2.2075 O.co2     1 ACP        -0.8379
      4 O3G         5.6089   -1.7639   -3.4115 O.3       1 ACP        -0.7980
      5 PB          6.2337   -2.1228    0.0387 P.3       1 ACP         1.7688
      6 O1B         6.9872   -2.8794    1.0913 O.2       1 ACP        -0.9167
      7 O2B         5.0395   -2.9507   -0.6687 O.3       1 ACP        -0.8201
      8 C3B         7.2360   -1.5471   -1.3483 C.3       1 ACP        -0.6097
      9 PA          6.1204    0.6012    1.1884 P.3       1 ACP         1.5979
     10 O1A         6.9620    1.3019    0.1440 O.co2     1 ACP        -0.8617
     11 O2A         6.6916    0.2777    2.5518 O.co2     1 ACP        -0.8617
     12 O3A         5.5148   -0.7627    0.5279 O.3       1 ACP        -0.8283
     13 O5'         4.7294    1.4426    1.3699 O.3       1 ACP        -0.5783
     14 C5'         4.0922    1.9801    0.2227 C.3       1 ACP         0.1980
     15 C4'         2.5944    2.0310    0.4653 C.3       1 ACP         0.0815
     16 O4'         1.9327    2.5740   -0.6889 O.3       1 ACP        -0.4127
     17 C3'         1.9685    0.6634    0.6767 C.3       1 ACP         0.0890
     18 O3'         2.1425    0.1975    1.9977 O.3       1 ACP        -0.6221
     19 C2'         0.5176    0.9128    0.3099 C.3       1 ACP         0.1067
     20 O2'        -0.2103    1.4454    1.4152 O.3       1 ACP        -0.6053
     21 C1'         0.6219    1.9765   -0.7844 C.3       1 ACP         0.4223
     22 N9          0.4237    1.4496   -2.1357 N.pl3     1 ACP        -0.6834
     23 C8          1.4026    0.9717   -2.9660 C.ar      1 ACP         0.5614
     24 N7          0.9183    0.5619   -4.1197 N.2       1 ACP        -0.5751
     25 C5         -0.4330    0.7845   -4.0331 C.ar      1 ACP        -0.2117
     26 C6         -1.4794    0.5615   -4.9225 C.ar      1 ACP         0.7177
     27 N6         -1.2378    0.0044   -6.1899 N.pl3     1 ACP        -0.9401
     28 N1         -2.7406    0.8885   -4.5512 N.ar      1 ACP        -0.8008
     29 C2         -2.9113    1.4216   -3.3172 C.ar      1 ACP         0.6565
     30 N3         -1.9824    1.6843   -2.3721 N.ar      1 ACP        -0.7061
     31 C4         -0.7613    1.3370   -2.8054 C.ar      1 ACP         0.5715
     32 HOG3        5.1851   -1.6025   -4.2813 H         1 ACP         0.4226
     33 HOB2        4.3039   -3.2897   -0.1155 H         1 ACP         0.4482
     34 H3B1        7.7345   -2.4212   -1.7822 H         1 ACP         0.1012
     35 H3B2        8.0197   -0.9058   -0.9309 H         1 ACP         0.1012
     36 H5'1        4.4844    2.9853    0.0382 H         1 ACP         0.0481
     37 H5'2        4.3192    1.3445   -0.6390 H         1 ACP         0.0481
     38 H4'         2.3751    2.7029    1.3156 H         1 ACP         0.0904
     39 H3'         2.4336   -0.1217   -0.0015 H         1 ACP         0.0809
     40 HO3'        3.0987    0.1465    2.1461 H         1 ACP         0.4528
     41 H2'         0.0316    0.0155   -0.0339 H         1 ACP         0.0594
     42 HO2'       -0.1608    0.7921    2.1351 H         1 ACP         0.4344
     43 H1'        -0.1474    2.7798   -0.6651 H         1 ACP         0.1127
     44 H8          2.4442    0.9470   -2.6763 H         1 ACP         0.1050
     45 HN61       -0.2955   -0.1901   -6.4713 H         1 ACP         0.4211
     46 HN62       -1.9987   -0.1045   -6.8334 H         1 ACP         0.4211
     47 H2         -3.9335    1.6716   -3.0534 H         1 ACP         0.0375
@<TRIPOS>BOND
     1    1    2 2
     2    1    3 1
     3    1    4 1
     4    1    8 1
     5    4   32 1
     6    5    6 2
     7    5    7 1
     8    5    8 1
     9    5   12 1
    10    7   33 1
    11    8   34 1
    12    8   35 1
    13    9   10 2
    14    9   11 1
    15    9   12 1
    16    9   13 1
    17   13   14 1
    18   14   15 1
    19   14   36 1
    20   14   37 1
    21   15   16 1
    22   15   17 1
    23   15   38 1
    24   16   21 1
    25   17   18 1
    26   17   19 1
    27   17   39 1
    28   18   40 1
    29   19   20 1
    30   19   21 1
    31   19   41 1
    32   20   42 1
    33   21   22 1
    34   21   43 1
    35   22   23 ar
    36   22   31 ar
    37   23   24 ar
    38   23   44 1
    39   24   25 ar
    40   25   26 ar
    41   25   31 ar
    42   26   27 1
    43   26   28 ar
    44   27   45 1
    45   27   46 1
    46   28   29 ar
    47   29   30 ar
    48   29   47 1
    49   30   31 ar
@<TRIPOS>SUBSTRUCTURE
     1 ACP         1 GROUP 0 A     ****
@<TRIPOS>MOLECULE
[[[5-(6-aminopurin-9-yl)-3,4-dihydroxy-tetrahydrofuran-2-yl]methoxy-oxido-phosphoryl]oxy-hydroxy-phosphoryl]methyl-hydroxy-phosphinate
   47    49     1     0     0
SMALL
USER_CHARGES

@<TRIPOS>ATOM
      1 PG         -3.4687    4.5961    4.8196 P.3       1 ACP         1.3516
      2 O1G        -2.6685    3.4539    4.2379 O.co2     1 ACP        -0.8379
      3 O2G        -4.9100    4.8465    4.4406 O.co2     1 ACP        -0.8379
      4 O3G        -3.3310    4.5815    6.4447 O.3       1 ACP        -0.7980
      5 PB         -2.1157    6.7274    2.8244 P.3       1 ACP         1.7688
      6 O1B        -1.3481    8.0144    2.7739 O.2       1 ACP        -0.9167
      7 O2B        -3.5411    6.7567    2.0635 O.3       1 ACP        -0.8201
      8 C3B        -2.5285    6.1528    4.4855 C.3       1 ACP        -0.6097
      9 PA          0.0332    4.7085    2.5761 P.3       1 ACP         1.5979
     10 O1A        -0.1161    4.0779    3.9435 O.co2     1 ACP        -0.8617
     11 O2A         1.1770    5.6544    2.2817 O.co2     1 ACP        -0.8617
     12 O3A        -1.3743    5.4401    2.1925 O.3       1 ACP        -0.8283
     13 O5'         0.0181    3.5132    1.4596 O.3       1 ACP        -0.5783
     14 C5'        -0.8811    2.4285    1.6206 C.3       1 ACP         0.1980
     15 C4'        -0.1994    1.3333    2.4288 C.3       1 ACP         0.0815
     16 O4'        -1.1285    0.2356    2.5840 O.3       1 ACP        -0.4127
     17 C3'         1.0324    0.7610    1.7344 C.3       1 ACP         0.0890
     18 O3'         1.9175    0.2377    2.7247 O.3       1 ACP        -0.6221
     19 C2'         0.4468   -0.3802    0.9263 C.3       1 ACP         0.1067
     20 O2'         1.3993   -1.3703    0.5961 O.3       1 ACP        -0.6053
     21 C1'        -0.6159   -0.9100    1.8769 C.3       1 ACP         0.4223
     22 N9         -1.7127   -1.6108    1.2130 N.pl3     1 ACP        -0.6834
     23 C8         -2.8641   -1.0399    0.7392 C.ar      1 ACP         0.5614
     24 N7         -3.6659   -1.9257    0.1858 N.2       1 ACP        -0.5751
     25 C5         -3.0053   -3.1223    0.3069 C.ar      1 ACP        -0.2117
     26 C6         -3.3321   -4.4178   -0.0813 C.ar      1 ACP         0.7177
     27 N6         -4.5476   -4.6866   -0.7335 N.pl3     1 ACP        -0.9401
     28 N1         -2.4608   -5.4225    0.1773 N.ar      1 ACP        -0.8008
     29 C2         -1.3053   -5.1020    0.8081 C.ar      1 ACP         0.6565
     30 N3         -0.8788   -3.8921    1.2315 N.ar      1 ACP        -0.7061
     31 C4         -1.7870   -2.9477    0.9438 C.ar      1 ACP         0.5715
     32 HOG3       -3.6356    3.7871    6.9329 H         1 ACP         0.4226
     33 HOB2       -3.5627    6.9530    1.1027 H         1 ACP         0.4482
     34 H3B1       -3.0841    6.9546    4.9849 H         1 ACP         0.1012
     35 H3B2       -1.5834    6.0335    5.0259 H         1 ACP         0.1012
     36 H5'1       -1.7769    2.7851    2.1387 H         1 ACP         0.0481
     37 H5'2       -1.1653    2.0543    0.6320 H         1 ACP         0.0481
     38 H4'         0.0403    1.7078    3.4343 H         1 ACP         0.0904
     39 H3'         1.5906    1.4859    1.1353 H         1 ACP         0.0809
     40 HO3'        2.6839   -0.1150    2.2479 H         1 ACP         0.4528
     41 H2'        -0.0017    0.0018    0.0005 H         1 ACP         0.0594
     42 HO2'        2.0953   -0.9375    0.0709 H         1 ACP         0.4344
     43 H1'        -0.1998   -1.6319    2.6178 H         1 ACP         0.1127
     44 H8         -3.0609    0.0200    0.8250 H         1 ACP         0.1050
     45 HN61       -5.2046   -3.9433   -0.8775 H         1 ACP         0.4211
     46 HN62       -4.7849   -5.6332   -0.9625 H         1 ACP         0.4211
     47 H2         -0.6318   -5.9307    0.9993 H         1 ACP         0.0375
@<TRIPOS>BOND
     1    1    2 2
     2    1    3 1
     3    1    4 1
     4    1    8 1
     5    4   32 1
     6    5    6 2
     7    5    7 1
     8    5    8 1
     9    5   12 1
    10    7   33 1
    11    8   34 1
    12    8   35 1
    13    9   10 2
    14    9   11 1
    15    9   12 1
    16    9   13 1
    17   13   14 1
    18   14   15 1
    19   14   36 1
    20   14   37 1
    21   15   16 1
    22   15   17 1
    23   15   38 1
    24   16   21 1
    25   17   18 1
    26   17   19 1
    27   17   39 1
    28   18   40 1
    29   19   20 1
    30   19   21 1
    31   19   41 1
    32   20   42 1
    33   21   22 1
    34   21   43 1
    35   22   23 ar
    36   22   31 ar
    37   23   24 ar
    38   23   44 1
    39   24   25 ar
    40   25   26 ar
    41   25   31 ar
    42   26   27 1
    43   26   28 ar
    44   27   45 1
    45   27   46 1
    46   28   29 ar
    47   29   30 ar
    48   29   47 1
    49   30   31 ar
@<TRIPOS>SUBSTRUCTURE
     1 ACP         1 GROUP 0 A     ****
@<TRIPOS>MOLECULE
[[[5-(6-aminopurin-9-yl)-3,4-dihydroxy-tetrahydrofuran-2-yl]methoxy-oxido-phosphoryl]oxy-hydroxy-phosphoryl]methyl-hydroxy-phosphinate
   47    49     1     0     0
SMALL
USER_CHARGES

@<TRIPOS>ATOM
      1 PG         -3.4687    4.5961    4.8196 P.3       1 ACP         1.3516
      2 O1G        -2.6685    3.4539    4.2379 O.co2     1 ACP        -0.8379
      3 O2G        -4.9100    4.8465    4.4406 O.co2     1 ACP        -0.8379
      4 O3G        -3.3310    4.5815    6.4447 O.3       1 ACP        -0.7980
      5 PB         -2.1157    6.7274    2.8244 P.3       1 ACP         1.7688
      6 O1B        -1.3481    8.0144    2.7739 O.2       1 ACP        -0.9167
      7 O2B        -3.5411    6.7567    2.0635 O.3       1 ACP        -0.8201
      8 C3B        -2.5285    6.1528    4.4855 C.3       1 ACP        -0.6097
      9 PA          0.0332    4.7085    2.5761 P.3       1 ACP         1.5979
     10 O1A        -0.1161    4.0779    3.9435 O.co2     1 ACP        -0.8617
     11 O2A         1.1770    5.6544    2.2817 O.co2     1 ACP        -0.8617
     12 O3A        -1.3743    5.4401    2.1925 O.3       1 ACP        -0.8283
     13 O5'         0.0181    3.5132    1.4596 O.3       1 ACP        -0.5783
     14 C5'        -0.8811    2.4285    1.6206 C.3       1 ACP         0.1980
     15 C4'        -0.1994    1.3333    2.4288 C.3       1 ACP         0.0815
     16 O4'        -1.1285    0.2356    2.5840 O.3       1 ACP        -0.4127
     17 C3'         1.0324    0.7610    1.7344 C.3       1 ACP         0.0890
     18 O3'         1.9175    0.2377    2.7247 O.3       1 ACP        -0.6221
     19 C2'         0.4468   -0.3802    0.9263 C.3       1 ACP         0.1067
     20 O2'         1.3993   -1.3703    0.5961 O.3       1 ACP        -0.6053
     21 C1'        -0.6159   -0.9100    1.8769 C.3       1 ACP         0.4223
     22 N9         -1.7127   -1.6108    1.2130 N.pl3     1 ACP        -0.6834
     23 C8         -1.7712   -2.9546    0.9544 C.ar      1 ACP         0.5614
     24 N7         -2.8883   -3.2948    0.3462 N.2       1 ACP        -0.5751
     25 C5         -3.5834   -2.1202    0.2043 C.ar      1 ACP        -0.2117
     26 C6         -4.8225   -1.8251   -0.3554 C.ar      1 ACP         0.7177
     27 N6         -5.6154   -2.8395   -0.9189 N.pl3     1 ACP        -0.9401
     28 N1         -5.2589   -0.5425   -0.3507 N.ar      1 ACP        -0.8008
     29 C2         -4.4510    0.3913    0.2069 C.ar      1 ACP         0.6565
     30 N3         -3.2368    0.2296    0.7767 N.ar      1 ACP        -0.7061
     31 C4         -2.8684   -1.0596    0.7376 C.ar      1 ACP         0.5715
     32 HOG3       -3.6356    3.7871    6.9329 H         1 ACP         0.4226
     33 HOB2       -3.5627    6.9530    1.1027 H         1 ACP         0.4482
     34 H3B1       -3.0841    6.9546    4.9849 H         1 ACP         0.1012
     35 H3B2       -1.5834    6.0335    5.0259 H         1 ACP         0.1012
     36 H5'1       -1.7769    2.7851    2.1387 H         1 ACP         0.0481
     37 H5'2       -1.1653    2.0543    0.6320 H         1 ACP         0.0481
     38 H4'         0.0403    1.7078    3.4343 H         1 ACP         0.0904
     39 H3'         1.5906    1.4859    1.1353 H         1 ACP         0.0809
     40 HO3'        2.6839   -0.1150    2.2479 H         1 ACP         0.4528
     41 H2'        -0.0017    0.0018    0.0005 H         1 ACP         0.0594
     42 HO2'        2.0953   -0.9375    0.0709 H         1 ACP         0.4344
     43 H1'        -0.1998   -1.6319    2.6178 H         1 ACP         0.1127
     44 H8         -0.9745   -3.6312    1.2318 H         1 ACP         0.1050
     45 HN61       -5.2619   -3.7766   -0.9586 H         1 ACP         0.4211
     46 HN62       -6.4834   -2.5990   -1.3590 H         1 ACP         0.4211
     47 H2         -4.8317    1.4071    0.1930 H         1 ACP         0.0375
@<TRIPOS>BOND
     1    1    2 2
     2    1    3 1
     3    1    4 1
     4    1    8 1
     5    4   32 1
     6    5    6 2
     7    5    7 1
     8    5    8 1
     9    5   12 1
    10    7   33 1
    11    8   34 1
    12    8   35 1
    13    9   10 2
    14    9   11 1
    15    9   12 1
    16    9   13 1
    17   13   14 1
    18   14   15 1
    19   14   36 1
    20   14   37 1
    21   15   16 1
    22   15   17 1
    23   15   38 1
    24   16   21 1
    25   17   18 1
    26   17   19 1
    27   17   39 1
    28   18   40 1
    29   19   20 1
    30   19   21 1
    31   19   41 1
    32   20   42 1
    33   21   22 1
    34   21   43 1
    35   22   23 ar
    36   22   31 ar
    37   23   24 ar
    38   23   44 1
    39   24   25 ar
    40   25   26 ar
    41   25   31 ar
    42   26   27 1
    43   26   28 ar
    44   27   45 1
    45   27   46 1
    46   28   29 ar
    47   29   30 ar
    48   29   47 1
    49   30   31 ar
@<TRIPOS>SUBSTRUCTURE
     1 ACP         1 GROUP 0 A     ****
@<TRIPOS>MOLECULE
[[[5-(6-aminopurin-9-yl)-3,4-dihydroxy-tetrahydrofuran-2-yl]methoxy-oxido-phosphoryl]oxy-hydroxy-phosphoryl]methyl-hydroxy-phosphinate
   47    49     1     0     0
SMALL
USER_CHARGES

@<TRIPOS>ATOM
      1 PG         -2.5175    3.8735   -7.9903 P.3       1 ACP         1.3516
      2 O1G        -1.1623    3.8373   -8.6579 O.co2     1 ACP        -0.8379
      3 O2G        -3.7158    4.5329   -8.6330 O.co2     1 ACP        -0.8379
      4 O3G        -2.9224    2.3702   -7.5046 O.3       1 ACP        -0.7980
      5 PB         -0.8736    4.2977   -5.2568 P.3       1 ACP         1.7688
      6 O1B        -0.8805    5.0239   -3.9451 O.2       1 ACP        -0.9167
      7 O2B         0.4013    4.6104   -6.1994 O.3       1 ACP        -0.8201
      8 C3B        -2.2894    4.6407   -6.3235 C.3       1 ACP        -0.6097
      9 PA         -1.9759    1.6544   -4.5130 P.3       1 ACP         1.5979
     10 O1A        -1.3934    0.2587   -4.5652 O.co2     1 ACP        -0.8617
     11 O2A        -3.3453    1.9426   -5.0888 O.co2     1 ACP        -0.8617
     12 O3A        -0.8949    2.6859   -5.1695 O.3       1 ACP        -0.8283
     13 O5'        -1.9207    2.1716   -2.9622 O.3       1 ACP        -0.5783
     14 C5'        -0.7794    1.8744   -2.1748 C.3       1 ACP         0.1980
     15 C4'        -0.9699    2.4597   -0.7819 C.3       1 ACP         0.0815
     16 O4'        -2.1475    1.8640   -0.2014 O.3       1 ACP        -0.4127
     17 C3'         0.1697    2.1347    0.1695 C.3       1 ACP         0.0890
     18 O3'         0.1809    3.0982    1.2223 O.3       1 ACP        -0.6221
     19 C2'        -0.2543    0.7880    0.7187 C.3       1 ACP         0.1067
     20 O2'         0.3606    0.4944    1.9582 O.3       1 ACP        -0.6053
     21 C1'        -1.7682    0.9516    0.8548 C.3       1 ACP         0.4223
     22 N9         -2.5926   -0.2553    0.7436 N.pl3     1 ACP        -0.6834
     23 C8         -2.6464   -1.0979   -0.3350 C.ar      1 ACP         0.5614
     24 N7         -3.4765   -2.1012   -0.1401 N.2       1 ACP        -0.5751
     25 C5         -3.9826   -1.8994    1.1194 C.ar      1 ACP        -0.2117
     26 C6         -4.8981   -2.6116    1.8877 C.ar      1 ACP         0.7177
     27 N6         -5.4931   -3.7842    1.3916 N.pl3     1 ACP        -0.9401
     28 N1         -5.2111   -2.1602    3.1262 N.ar      1 ACP        -0.8008
     29 C2         -4.6051   -1.0248    3.5500 C.ar      1 ACP         0.6565
     30 N3         -3.7075   -0.2510    2.9016 N.ar      1 ACP        -0.7061
     31 C4         -3.4448   -0.7551    1.6866 C.ar      1 ACP         0.5715
     32 HOG3       -2.9944    1.6635   -8.1811 H         1 ACP         0.4226
     33 HOB2        1.3006    4.4068   -5.8649 H         1 ACP         0.4482
     34 H3B1       -2.3304    5.7244   -6.4813 H         1 ACP         0.1012
     35 H3B2       -3.1873    4.3649   -5.7603 H         1 ACP         0.1012
     36 H5'1       -0.6601    0.7877   -2.1202 H         1 ACP         0.0481
     37 H5'2        0.1042    2.3072   -2.6544 H         1 ACP         0.0481
     38 H4'        -1.1469    3.5409   -0.8522 H         1 ACP         0.0904
     39 H3'         1.1601    2.1310   -0.2934 H         1 ACP         0.0809
     40 HO3'        0.3098    3.9616    0.8017 H         1 ACP         0.4528
     41 H2'        -0.0024   -0.0091    0.0062 H         1 ACP         0.0594
     42 HO2'        0.0384   -0.3797    2.2403 H         1 ACP         0.4344
     43 H1'        -2.0584    1.4255    1.8301 H         1 ACP         0.1127
     44 H8         -2.0609   -0.9301   -1.2286 H         1 ACP         0.1050
     45 HN61       -5.2894   -4.0827    0.4566 H         1 ACP         0.4211
     46 HN62       -6.1852   -4.2564    1.9420 H         1 ACP         0.4211
     47 H2         -4.8793   -0.6924    4.5457 H         1 ACP         0.0375
@<TRIPOS>BOND
     1    1    2 2
     2    1    3 1
     3    1    4 1
     4    1    8 1
     5    4   32 1
     6    5    6 2
     7    5    7 1
     8    5    8 1
     9    5   12 1
    10    7   33 1
    11    8   34 1
    12    8   35 1
    13    9   10 2
    14    9   11 1
    15    9   12 1
    16    9   13 1
    17   13   14 1
    18   14   15 1
    19   14   36 1
    20   14   37 1
    21   15   16 1
    22   15   17 1
    23   15   38 1
    24   16   21 1
    25   17   18 1
    26   17   19 1
    27   17   39 1
    28   18   40 1
    29   19   20 1
    30   19   21 1
    31   19   41 1
    32   20   42 1
    33   21   22 1
    34   21   43 1
    35   22   23 ar
    36   22   31 ar
    37   23   24 ar
    38   23   44 1
    39   24   25 ar
    40   25   26 ar
    41   25   31 ar
    42   26   27 1
    43   26   28 ar
    44   27   45 1
    45   27   46 1
    46   28   29 ar
    47   29   30 ar
    48   29   47 1
    49   30   31 ar
@<TRIPOS>SUBSTRUCTURE
     1 ACP         1 GROUP 0 A     ****
@<TRIPOS>MOLECULE
[[[5-(6-aminopurin-9-yl)-3,4-dihydroxy-tetrahydrofuran-2-yl]methoxy-oxido-phosphoryl]oxy-hydroxy-phosphoryl]methyl-hydroxy-phosphinate
   47    49     1     0     0
SMALL
USER_CHARGES

@<TRIPOS>ATOM
      1 PG          7.5549    0.8954    3.1315 P.3       1 ACP         1.3516
      2 O1G         6.6259    0.6892    1.9577 O.co2     1 ACP        -0.8379
      3 O2G         7.1459    0.5733    4.5502 O.co2     1 ACP        -0.8379
      4 O3G         8.9947    0.1990    2.8118 O.3       1 ACP        -0.7980
      5 PB          6.9576    4.0563    3.2116 P.3       1 ACP         1.7688
      6 O1B         7.6047    5.4080    3.1659 O.2       1 ACP        -0.9167
      7 O2B         6.1136    3.7526    4.5560 O.3       1 ACP        -0.8201
      8 C3B         8.0993    2.6622    3.0985 C.3       1 ACP        -0.6097
      9 PA          6.0981    3.6803    0.4053 P.3       1 ACP         1.5979
     10 O1A         6.9910    2.5052    0.0710 O.co2     1 ACP        -0.8617
     11 O2A         6.4244    5.0681   -0.1019 O.co2     1 ACP        -0.8617
     12 O3A         5.9102    3.7366    2.0255 O.3       1 ACP        -0.8283
     13 O5'         4.5669    3.2940   -0.0211 O.3       1 ACP        -0.5783
     14 C5'         4.0922    1.9801    0.2227 C.3       1 ACP         0.1980
     15 C4'         2.5944    2.0310    0.4653 C.3       1 ACP         0.0815
     16 O4'         1.9327    2.5740   -0.6889 O.3       1 ACP        -0.4127
     17 C3'         1.9685    0.6634    0.6767 C.3       1 ACP         0.0890
     18 O3'         2.1425    0.1975    1.9977 O.3       1 ACP        -0.6221
     19 C2'         0.5176    0.9128    0.3099 C.3       1 ACP         0.1067
     20 O2'        -0.2103    1.4454    1.4152 O.3       1 ACP        -0.6053
     21 C1'         0.6219    1.9765   -0.7844 C.3       1 ACP         0.4223
     22 N9          0.4237    1.4496   -2.1357 N.pl3     1 ACP        -0.6834
     23 C8          1.4026    0.9717   -2.9660 C.ar      1 ACP         0.5614
     24 N7          0.9183    0.5619   -4.1197 N.2       1 ACP        -0.5751
     25 C5         -0.4330    0.7845   -4.0331 C.ar      1 ACP        -0.2117
     26 C6         -1.4794    0.5615   -4.9225 C.ar      1 ACP         0.7177
     27 N6         -1.2378    0.0044   -6.1899 N.pl3     1 ACP        -0.9401
     28 N1         -2.7406    0.8885   -4.5512 N.ar      1 ACP        -0.8008
     29 C2         -2.9113    1.4216   -3.3172 C.ar      1 ACP         0.6565
     30 N3         -1.9824    1.6843   -2.3721 N.ar      1 ACP        -0.7061
     31 C4         -0.7613    1.3370   -2.8054 C.ar      1 ACP         0.5715
     32 HOG3        9.0192   -0.7662    2.6385 H         1 ACP         0.4226
     33 HOB2        5.3564    4.3334    4.7828 H         1 ACP         0.4482
     34 H3B1        8.8323    2.7679    3.9063 H         1 ACP         0.1012
     35 H3B2        8.6446    2.7722    2.1550 H         1 ACP         0.1012
     36 H5'1        4.3180    1.3550   -0.6470 H         1 ACP         0.0481
     37 H5'2        4.6085    1.5739    1.0983 H         1 ACP         0.0481
     38 H4'         2.3751    2.7029    1.3156 H         1 ACP         0.0904
     39 H3'         2.4336   -0.1217   -0.0015 H         1 ACP         0.0809
     40 HO3'        1.7160   -0.6716    2.0397 H         1 ACP         0.4528
     41 H2'         0.0316    0.0155   -0.0339 H         1 ACP         0.0594
     42 HO2'       -0.1608    0.7921    2.1351 H         1 ACP         0.4344
     43 H1'        -0.1474    2.7798   -0.6651 H         1 ACP         0.1127
     44 H8          2.4442    0.9470   -2.6763 H         1 ACP         0.1050
     45 HN61       -0.2955   -0.1901   -6.4713 H         1 ACP         0.4211
     46 HN62       -1.9987   -0.1045   -6.8334 H         1 ACP         0.4211
     47 H2         -3.9335    1.6716   -3.0534 H         1 ACP         0.0375
@<TRIPOS>BOND
     1    1    2 2
     2    1    3 1
     3    1    4 1
     4    1    8 1
     5    4   32 1
     6    5    6 2
     7    5    7 1
     8    5    8 1
     9    5   12 1
    10    7   33 1
    11    8   34 1
    12    8   35 1
    13    9   10 2
    14    9   11 1
    15    9   12 1
    16    9   13 1
    17   13   14 1
    18   14   15 1
    19   14   36 1
    20   14   37 1
    21   15   16 1
    22   15   17 1
    23   15   38 1
    24   16   21 1
    25   17   18 1
    26   17   19 1
    27   17   39 1
    28   18   40 1
    29   19   20 1
    30   19   21 1
    31   19   41 1
    32   20   42 1
    33   21   22 1
    34   21   43 1
    35   22   23 ar
    36   22   31 ar
    37   23   24 ar
    38   23   44 1
    39   24   25 ar
    40   25   26 ar
    41   25   31 ar
    42   26   27 1
    43   26   28 ar
    44   27   45 1
    45   27   46 1
    46   28   29 ar
    47   29   30 ar
    48   29   47 1
    49   30   31 ar
@<TRIPOS>SUBSTRUCTURE
     1 ACP         1 GROUP 0 A     ****
@<TRIPOS>MOLECULE
[[[5-(6-aminopurin-9-yl)-3,4-dihydroxy-tetrahydrofuran-2-yl]methoxy-oxido-phosphoryl]oxy-hydroxy-phosphoryl]methyl-hydroxy-phosphinate
   47    49     1     0     0
SMALL
USER_CHARGES

@<TRIPOS>ATOM
      1 PG          2.0191    7.8322    3.0358 P.3       1 ACP         1.3516
      2 O1G         1.5261    8.7022    4.1686 O.co2     1 ACP        -0.8379
      3 O2G         1.4698    7.9470    1.6326 O.co2     1 ACP        -0.8379
      4 O3G         3.6486    7.8809    2.9849 O.3       1 ACP        -0.7980
      5 PB          0.2295    5.3390    4.0029 P.3       1 ACP         1.7688
      6 O1B        -0.4754    5.9964    5.1515 O.2       1 ACP        -0.9167
      7 O2B         0.5751    3.7758    4.2233 O.3       1 ACP        -0.8201
      8 C3B         1.8208    6.0723    3.5671 C.3       1 ACP        -0.6097
      9 PA         -2.0038    4.7531    2.1525 P.3       1 ACP         1.5979
     10 O1A        -2.1508    4.9097    0.6546 O.co2     1 ACP        -0.8617
     11 O2A        -3.0647    5.2822    3.0929 O.co2     1 ACP        -0.8617
     12 O3A        -0.5536    5.3594    2.5914 O.3       1 ACP        -0.8283
     13 O5'        -1.7337    3.1724    2.4753 O.3       1 ACP        -0.5783
     14 C5'        -0.8811    2.4285    1.6206 C.3       1 ACP         0.1980
     15 C4'        -0.1994    1.3333    2.4288 C.3       1 ACP         0.0815
     16 O4'        -1.1285    0.2356    2.5840 O.3       1 ACP        -0.4127
     17 C3'         1.0324    0.7610    1.7344 C.3       1 ACP         0.0890
     18 O3'         1.9175    0.2377    2.7247 O.3       1 ACP        -0.6221
     19 C2'         0.4468   -0.3802    0.9263 C.3       1 ACP         0.1067
     20 O2'         1.3993   -1.3703    0.5961 O.3       1 ACP        -0.6053
     21 C1'        -0.6159   -0.9100    1.8769 C.3       1 ACP         0.4223
     22 N9         -1.7127   -1.6108    1.2130 N.pl3     1 ACP        -0.6834
     23 C8         -2.8641   -1.0399    0.7392 C.ar      1 ACP         0.5614
     24 N7         -3.6659   -1.9257    0.1858 N.2       1 ACP        -0.5751
     25 C5         -3.0053   -3.1223    0.3069 C.ar      1 ACP        -0.2117
     26 C6         -3.3321   -4.4178   -0.0813 C.ar      1 ACP         0.7177
     27 N6         -4.5476   -4.6866   -0.7335 N.pl3     1 ACP        -0.9401
     28 N1         -2.4608   -5.4225    0.1773 N.ar      1 ACP        -0.8008
     29 C2         -1.3053   -5.1020    0.8081 C.ar      1 ACP         0.6565
     30 N3         -0.8788   -3.8921    1.2315 N.ar      1 ACP        -0.7061
     31 C4         -1.7870   -2.9477    0.9438 C.ar      1 ACP         0.5715
     32 HOG3        4.0865    8.7475    2.8451 H         1 ACP         0.4226
     33 HOB2       -0.1590    3.1448    4.3818 H         1 ACP         0.4482
     34 H3B1        2.2580    5.4639    2.7673 H         1 ACP         0.1012
     35 H3B2        2.4712    5.9663    4.4420 H         1 ACP         0.1012
     36 H5'1       -1.4802    1.9928    0.8147 H         1 ACP         0.0481
     37 H5'2       -0.1369    3.1042    1.1873 H         1 ACP         0.0481
     38 H4'         0.0403    1.7078    3.4343 H         1 ACP         0.0904
     39 H3'         1.5906    1.4859    1.1353 H         1 ACP         0.0809
     40 HO3'        2.6839   -0.1150    2.2479 H         1 ACP         0.4528
     41 H2'        -0.0017    0.0018    0.0005 H         1 ACP         0.0594
     42 HO2'        2.0953   -0.9375    0.0709 H         1 ACP         0.4344
     43 H1'        -0.1998   -1.6319    2.6178 H         1 ACP         0.1127
     44 H8         -3.0609    0.0200    0.8250 H         1 ACP         0.1050
     45 HN61       -5.2046   -3.9433   -0.8775 H         1 ACP         0.4211
     46 HN62       -4.7849   -5.6332   -0.9625 H         1 ACP         0.4211
     47 H2         -0.6318   -5.9307    0.9993 H         1 ACP         0.0375
@<TRIPOS>BOND
     1    1    2 2
     2    1    3 1
     3    1    4 1
     4    1    8 1
     5    4   32 1
     6    5    6 2
     7    5    7 1
     8    5    8 1
     9    5   12 1
    10    7   33 1
    11    8   34 1
    12    8   35 1
    13    9   10 2
    14    9   11 1
    15    9   12 1
    16    9   13 1
    17   13   14 1
    18   14   15 1
    19   14   36 1
    20   14   37 1
    21   15   16 1
    22   15   17 1
    23   15   38 1
    24   16   21 1
    25   17   18 1
    26   17   19 1
    27   17   39 1
    28   18   40 1
    29   19   20 1
    30   19   21 1
    31   19   41 1
    32   20   42 1
    33   21   22 1
    34   21   43 1
    35   22   23 ar
    36   22   31 ar
    37   23   24 ar
    38   23   44 1
    39   24   25 ar
    40   25   26 ar
    41   25   31 ar
    42   26   27 1
    43   26   28 ar
    44   27   45 1
    45   27   46 1
    46   28   29 ar
    47   29   30 ar
    48   29   47 1
    49   30   31 ar
@<TRIPOS>SUBSTRUCTURE
     1 ACP         1 GROUP 0 A     ****
@<TRIPOS>MOLECULE
[[[5-(6-aminopurin-9-yl)-3,4-dihydroxy-tetrahydrofuran-2-yl]methoxy-oxido-phosphoryl]oxy-hydroxy-phosphoryl]methyl-hydroxy-phosphinate
   47    49     1     0     0
SMALL
USER_CHARGES

@<TRIPOS>ATOM
      1 PG          3.6823   -2.7985   -1.8021 P.3       1 ACP         1.3516
      2 O1G         4.5139   -2.7839   -3.0637 O.co2     1 ACP        -0.8379
      3 O2G         2.8180   -1.6286   -1.3922 O.co2     1 ACP        -0.8379
      4 O3G         2.7987   -4.1684   -1.7515 O.3       1 ACP        -0.7980
      5 PB          6.2337   -2.1228    0.0387 P.3       1 ACP         1.7688
      6 O1B         7.2603   -1.9674   -1.0429 O.2       1 ACP        -0.9167
      7 O2B         6.7857   -2.7755    1.4102 O.3       1 ACP        -0.8201
      8 C3B         4.8243   -3.1648   -0.3947 C.3       1 ACP        -0.6097
      9 PA          6.1204    0.6012    1.1884 P.3       1 ACP         1.5979
     10 O1A         6.9620    1.3019    0.1440 O.co2     1 ACP        -0.8617
     11 O2A         6.6916    0.2777    2.5518 O.co2     1 ACP        -0.8617
     12 O3A         5.5148   -0.7627    0.5279 O.3       1 ACP        -0.8283
     13 O5'         4.7294    1.4426    1.3699 O.3       1 ACP        -0.5783
     14 C5'         4.0922    1.9801    0.2227 C.3       1 ACP         0.1980
     15 C4'         2.5944    2.0310    0.4653 C.3       1 ACP         0.0815
     16 O4'         1.9327    2.5740   -0.6889 O.3       1 ACP        -0.4127
     17 C3'         1.9685    0.6634    0.6767 C.3       1 ACP         0.0890
     18 O3'         2.1425    0.1975    1.9977 O.3       1 ACP        -0.6221
     19 C2'         0.5176    0.9128    0.3099 C.3       1 ACP         0.1067
     20 O2'        -0.2103    1.4454    1.4152 O.3       1 ACP        -0.6053
     21 C1'         0.6219    1.9765   -0.7844 C.3       1 ACP         0.4223
     22 N9          0.4237    1.4496   -2.1357 N.pl3     1 ACP        -0.6834
     23 C8          1.4026    0.9717   -2.9660 C.ar      1 ACP         0.5614
     24 N7          0.9183    0.5619   -4.1197 N.2       1 ACP        -0.5751
     25 C5         -0.4330    0.7845   -4.0331 C.ar      1 ACP        -0.2117
     26 C6         -1.4794    0.5615   -4.9225 C.ar      1 ACP         0.7177
     27 N6         -1.2378    0.0044   -6.1899 N.pl3     1 ACP        -0.9401
     28 N1         -2.7406    0.8885   -4.5512 N.ar      1 ACP        -0.8008
     29 C2         -2.9113    1.4216   -3.3172 C.ar      1 ACP         0.6565
     30 N3         -1.9824    1.6843   -2.3721 N.ar      1 ACP        -0.7061
     31 C4         -0.7613    1.3370   -2.8054 C.ar      1 ACP         0.5715
     32 HOG3        2.1596   -4.3398   -2.4756 H         1 ACP         0.4226
     33 HOB2        7.5062   -2.3208    1.8963 H         1 ACP         0.4482
     34 H3B1        4.1899   -3.2508    0.4948 H         1 ACP         0.1012
     35 H3B2        5.2192   -4.1646   -0.6042 H         1 ACP         0.1012
     36 H5'1        4.4844    2.9853    0.0382 H         1 ACP         0.0481
     37 H5'2        4.3192    1.3445   -0.6390 H         1 ACP         0.0481
     38 H4'         2.3751    2.7029    1.3156 H         1 ACP         0.0904
     39 H3'         2.4336   -0.1217   -0.0015 H         1 ACP         0.0809
     40 HO3'        1.7160   -0.6716    2.0397 H         1 ACP         0.4528
     41 H2'         0.0316    0.0155   -0.0339 H         1 ACP         0.0594
     42 HO2'       -0.1608    0.7921    2.1351 H         1 ACP         0.4344
     43 H1'        -0.1474    2.7798   -0.6651 H         1 ACP         0.1127
     44 H8          2.4442    0.9470   -2.6763 H         1 ACP         0.1050
     45 HN61       -0.2955   -0.1901   -6.4713 H         1 ACP         0.4211
     46 HN62       -1.9987   -0.1045   -6.8334 H         1 ACP         0.4211
     47 H2         -3.9335    1.6716   -3.0534 H         1 ACP         0.0375
@<TRIPOS>BOND
     1    1    2 2
     2    1    3 1
     3    1    4 1
     4    1    8 1
     5    4   32 1
     6    5    6 2
     7    5    7 1
     8    5    8 1
     9    5   12 1
    10    7   33 1
    11    8   34 1
    12    8   35 1
    13    9   10 2
    14    9   11 1
    15    9   12 1
    16    9   13 1
    17   13   14 1
    18   14   15 1
    19   14   36 1
    20   14   37 1
    21   15   16 1
    22   15   17 1
    23   15   38 1
    24   16   21 1
    25   17   18 1
    26   17   19 1
    27   17   39 1
    28   18   40 1
    29   19   20 1
    30   19   21 1
    31   19   41 1
    32   20   42 1
    33   21   22 1
    34   21   43 1
    35   22   23 ar
    36   22   31 ar
    37   23   24 ar
    38   23   44 1
    39   24   25 ar
    40   25   26 ar
    41   25   31 ar
    42   26   27 1
    43   26   28 ar
    44   27   45 1
    45   27   46 1
    46   28   29 ar
    47   29   30 ar
    48   29   47 1
    49   30   31 ar
@<TRIPOS>SUBSTRUCTURE
     1 ACP         1 GROUP 0 A     ****
@<TRIPOS>MOLECULE
[[[5-(6-aminopurin-9-yl)-3,4-dihydroxy-tetrahydrofuran-2-yl]methoxy-oxido-phosphoryl]oxy-hydroxy-phosphoryl]methyl-hydroxy-phosphinate
   47    49     1     0     0
SMALL
USER_CHARGES

@<TRIPOS>ATOM
      1 PG         -6.4441    2.4734    3.8694 P.3       1 ACP         1.3516
      2 O1G        -7.4929    3.2828    4.5963 O.co2     1 ACP        -0.8379
      3 O2G        -4.9995    2.4420    4.3119 O.co2     1 ACP        -0.8379
      4 O3G        -6.9817    0.9469    3.6675 O.3       1 ACP        -0.7980
      5 PB         -5.3823    2.3070    0.8364 P.3       1 ACP         1.7688
      6 O1B        -5.5653    2.8754   -0.5389 O.2       1 ACP        -0.9167
      7 O2B        -5.6309    0.7143    0.9515 O.3       1 ACP        -0.8201
      8 C3B        -6.4706    3.0027    2.0979 C.3       1 ACP        -0.6097
      9 PA         -3.0801    3.8628    1.8538 P.3       1 ACP         1.5979
     10 O1A        -3.7975    4.5869    2.9722 O.co2     1 ACP        -0.8617
     11 O2A        -2.7276    4.5805    0.5692 O.co2     1 ACP        -0.8617
     12 O3A        -3.9225    2.5119    1.4945 O.3       1 ACP        -0.8283
     13 O5'        -1.7337    3.1724    2.4753 O.3       1 ACP        -0.5783
     14 C5'        -0.8811    2.4285    1.6206 C.3       1 ACP         0.1980
     15 C4'        -0.1994    1.3333    2.4288 C.3       1 ACP         0.0815
     16 O4'        -1.1285    0.2356    2.5840 O.3       1 ACP        -0.4127
     17 C3'         1.0324    0.7610    1.7344 C.3       1 ACP         0.0890
     18 O3'         1.9175    0.2377    2.7247 O.3       1 ACP        -0.6221
     19 C2'         0.4468   -0.3802    0.9263 C.3       1 ACP         0.1067
     20 O2'         1.3993   -1.3703    0.5961 O.3       1 ACP        -0.6053
     21 C1'        -0.6159   -0.9100    1.8769 C.3       1 ACP         0.4223
     22 N9         -1.7127   -1.6108    1.2130 N.pl3     1 ACP        -0.6834
     23 C8         -2.0877   -2.9101    1.4304 C.ar      1 ACP         0.5614
     24 N7         -3.1152   -3.2613    0.6857 N.2       1 ACP        -0.5751
     25 C5         -3.4186   -2.1409   -0.0462 C.ar      1 ACP        -0.2117
     26 C6         -4.3953   -1.8809   -1.0023 C.ar      1 ACP         0.7177
     27 N6         -5.3118   -2.8767   -1.3812 N.pl3     1 ACP        -0.9401
     28 N1         -4.4538   -0.6507   -1.5667 N.ar      1 ACP        -0.8008
     29 C2         -3.5442    0.2679   -1.1609 C.ar      1 ACP         0.6565
     30 N3         -2.5561    0.1361   -0.2491 N.ar      1 ACP        -0.7061
     31 C4         -2.5568   -1.1019    0.2674 C.ar      1 ACP         0.5715
     32 HOG3       -7.1993    0.4182    4.4646 H         1 ACP         0.4226
     33 HOB2       -5.0740    0.1070    0.4194 H         1 ACP         0.4482
     34 H3B1       -7.5030    2.8659    1.7569 H         1 ACP         0.1012
     35 H3B2       -6.2817    4.0813    2.1226 H         1 ACP         0.1012
     36 H5'1       -1.4802    1.9928    0.8147 H         1 ACP         0.0481
     37 H5'2       -0.1369    3.1042    1.1873 H         1 ACP         0.0481
     38 H4'         0.0403    1.7078    3.4343 H         1 ACP         0.0904
     39 H3'         1.5906    1.4859    1.1353 H         1 ACP         0.0809
     40 HO3'        2.6839   -0.1150    2.2479 H         1 ACP         0.4528
     41 H2'        -0.0017    0.0018    0.0005 H         1 ACP         0.0594
     42 HO2'        2.0953   -0.9375    0.0709 H         1 ACP         0.4344
     43 H1'        -0.1998   -1.6319    2.6178 H         1 ACP         0.1127
     44 H8         -1.5778   -3.5473    2.1399 H         1 ACP         0.1050
     45 HN61       -6.0371   -2.6553   -2.0368 H         1 ACP         0.4211
     46 HN62       -5.2887   -3.7678   -0.9225 H         1 ACP         0.4211
     47 H2         -3.6201    1.2414   -1.6336 H         1 ACP         0.0375
@<TRIPOS>BOND
     1    1    2 2
     2    1    3 1
     3    1    4 1
     4    1    8 1
     5    4   32 1
     6    5    6 2
     7    5    7 1
     8    5    8 1
     9    5   12 1
    10    7   33 1
    11    8   34 1
    12    8   35 1
    13    9   10 2
    14    9   11 1
    15    9   12 1
    16    9   13 1
    17   13   14 1
    18   14   15 1
    19   14   36 1
    20   14   37 1
    21   15   16 1
    22   15   17 1
    23   15   38 1
    24   16   21 1
    25   17   18 1
    26   17   19 1
    27   17   39 1
    28   18   40 1
    29   19   20 1
    30   19   21 1
    31   19   41 1
    32   20   42 1
    33   21   22 1
    34   21   43 1
    35   22   23 ar
    36   22   31 ar
    37   23   24 ar
    38   23   44 1
    39   24   25 ar
    40   25   26 ar
    41   25   31 ar
    42   26   27 1
    43   26   28 ar
    44   27   45 1
    45   27   46 1
    46   28   29 ar
    47   29   30 ar
    48   29   47 1
    49   30   31 ar
@<TRIPOS>SUBSTRUCTURE
     1 ACP         1 GROUP 0 A     ****
@<TRIPOS>MOLECULE
[[[5-(6-aminopurin-9-yl)-3,4-dihydroxy-tetrahydrofuran-2-yl]methoxy-oxido-phosphoryl]oxy-hydroxy-phosphoryl]methyl-hydroxy-phosphinate
   47    49     1     0     0
SMALL
USER_CHARGES

@<TRIPOS>ATOM
      1 PG          5.0550    2.1521    4.9850 P.3       1 ACP         1.3516
      2 O1G         6.0173    1.3940    4.1002 O.co2     1 ACP        -0.8379
      3 O2G         3.5740    1.8523    5.0086 O.co2     1 ACP        -0.8379
      4 O3G         5.6271    2.1757    6.5121 O.3       1 ACP        -0.7980
      5 PB          4.9627    4.6507    2.9596 P.3       1 ACP         1.7688
      6 O1B         5.1779    6.1312    2.8593 O.2       1 ACP        -0.9167
      7 O2B         3.4702    4.1549    2.5877 O.3       1 ACP        -0.8201
      8 C3B         5.2513    3.9495    4.5981 C.3       1 ACP        -0.6097
      9 PA          6.0981    3.6803    0.4053 P.3       1 ACP         1.5979
     10 O1A         6.9910    2.5052    0.0710 O.co2     1 ACP        -0.8617
     11 O2A         6.4244    5.0681   -0.1019 O.co2     1 ACP        -0.8617
     12 O3A         5.9102    3.7366    2.0255 O.3       1 ACP        -0.8283
     13 O5'         4.5669    3.2940   -0.0211 O.3       1 ACP        -0.5783
     14 C5'         4.0922    1.9801    0.2227 C.3       1 ACP         0.1980
     15 C4'         2.5944    2.0310    0.4653 C.3       1 ACP         0.0815
     16 O4'         1.9327    2.5740   -0.6889 O.3       1 ACP        -0.4127
     17 C3'         1.9685    0.6634    0.6767 C.3       1 ACP         0.0890
     18 O3'         2.1425    0.1975    1.9977 O.3       1 ACP        -0.6221
     19 C2'         0.5176    0.9128    0.3099 C.3       1 ACP         0.1067
     20 O2'        -0.2103    1.4454    1.4152 O.3       1 ACP        -0.6053
     21 C1'         0.6219    1.9765   -0.7844 C.3       1 ACP         0.4223
     22 N9          0.4237    1.4496   -2.1357 N.pl3     1 ACP        -0.6834
     23 C8          1.4026    0.9717   -2.9660 C.ar      1 ACP         0.5614
     24 N7          0.9183    0.5619   -4.1197 N.2       1 ACP        -0.5751
     25 C5         -0.4330    0.7845   -4.0331 C.ar      1 ACP        -0.2117
     26 C6         -1.4794    0.5615   -4.9225 C.ar      1 ACP         0.7177
     27 N6         -1.2378    0.0044   -6.1899 N.pl3     1 ACP        -0.9401
     28 N1         -2.7406    0.8885   -4.5512 N.ar      1 ACP        -0.8008
     29 C2         -2.9113    1.4216   -3.3172 C.ar      1 ACP         0.6565
     30 N3         -1.9824    1.6843   -2.3721 N.ar      1 ACP        -0.7061
     31 C4         -0.7613    1.3370   -2.8054 C.ar      1 ACP         0.5715
     32 HOG3        5.7703    1.3208    6.9713 H         1 ACP         0.4226
     33 HOB2        3.1188    4.3375    1.6903 H         1 ACP         0.4482
     34 H3B1        4.6061    4.4832    5.3052 H         1 ACP         0.1012
     35 H3B2        6.2862    4.1852    4.8682 H         1 ACP         0.1012
     36 H5'1        4.3180    1.3550   -0.6470 H         1 ACP         0.0481
     37 H5'2        4.6085    1.5739    1.0983 H         1 ACP         0.0481
     38 H4'         2.3751    2.7029    1.3156 H         1 ACP         0.0904
     39 H3'         2.4336   -0.1217   -0.0015 H         1 ACP         0.0809
     40 HO3'        1.7160   -0.6716    2.0397 H         1 ACP         0.4528
     41 H2'         0.0316    0.0155   -0.0339 H         1 ACP         0.0594
     42 HO2'       -0.1608    0.7921    2.1351 H         1 ACP         0.4344
     43 H1'        -0.1474    2.7798   -0.6651 H         1 ACP         0.1127
     44 H8          2.4442    0.9470   -2.6763 H         1 ACP         0.1050
     45 HN61       -0.2955   -0.1901   -6.4713 H         1 ACP         0.4211
     46 HN62       -1.9987   -0.1045   -6.8334 H         1 ACP         0.4211
     47 H2         -3.9335    1.6716   -3.0534 H         1 ACP         0.0375
@<TRIPOS>BOND
     1    1    2 2
     2    1    3 1
     3    1    4 1
     4    1    8 1
     5    4   32 1
     6    5    6 2
     7    5    7 1
     8    5    8 1
     9    5   12 1
    10    7   33 1
    11    8   34 1
    12    8   35 1
    13    9   10 2
    14    9   11 1
    15    9   12 1
    16    9   13 1
    17   13   14 1
    18   14   15 1
    19   14   36 1
    20   14   37 1
    21   15   16 1
    22   15   17 1
    23   15   38 1
    24   16   21 1
    25   17   18 1
    26   17   19 1
    27   17   39 1
    28   18   40 1
    29   19   20 1
    30   19   21 1
    31   19   41 1
    32   20   42 1
    33   21   22 1
    34   21   43 1
    35   22   23 ar
    36   22   31 ar
    37   23   24 ar
    38   23   44 1
    39   24   25 ar
    40   25   26 ar
    41   25   31 ar
    42   26   27 1
    43   26   28 ar
    44   27   45 1
    45   27   46 1
    46   28   29 ar
    47   29   30 ar
    48   29   47 1
    49   30   31 ar
@<TRIPOS>SUBSTRUCTURE
     1 ACP         1 GROUP 0 A     ****
@<TRIPOS>MOLECULE
[[[5-(6-aminopurin-9-yl)-3,4-dihydroxy-tetrahydrofuran-2-yl]methoxy-oxido-phosphoryl]oxy-hydroxy-phosphoryl]methyl-hydroxy-phosphinate
   47    49     1     0     0
SMALL
USER_CHARGES

@<TRIPOS>ATOM
      1 PG          5.9551   -1.3503   -2.7896 P.3       1 ACP         1.3516
      2 O1G         4.4484   -1.2654   -2.8671 O.co2     1 ACP        -0.8379
      3 O2G         6.7820   -2.0150   -3.8658 O.co2     1 ACP        -0.8379
      4 O3G         6.5655    0.1288   -2.4740 O.3       1 ACP        -0.7980
      5 PB          5.9087   -1.4897    0.4249 P.3       1 ACP         1.7688
      6 O1B         6.3507   -2.3040    1.6037 O.2       1 ACP        -0.9167
      7 O2B         4.3104   -1.2842    0.3025 O.3       1 ACP        -0.8201
      8 C3B         6.3785   -2.1626   -1.1833 C.3       1 ACP        -0.6097
      9 PA          6.3567    1.2769    1.3738 P.3       1 ACP         1.5979
     10 O1A         6.9560    2.4959    0.7069 O.co2     1 ACP        -0.8617
     11 O2A         6.8130    0.8461    2.7507 O.co2     1 ACP        -0.8617
     12 O3A         6.4917    0.0137    0.3492 O.3       1 ACP        -0.8283
     13 O5'         4.7294    1.4426    1.3699 O.3       1 ACP        -0.5783
     14 C5'         4.0922    1.9801    0.2227 C.3       1 ACP         0.1980
     15 C4'         2.5944    2.0310    0.4653 C.3       1 ACP         0.0815
     16 O4'         1.9327    2.5740   -0.6889 O.3       1 ACP        -0.4127
     17 C3'         1.9685    0.6634    0.6767 C.3       1 ACP         0.0890
     18 O3'         2.1425    0.1975    1.9977 O.3       1 ACP        -0.6221
     19 C2'         0.5176    0.9128    0.3099 C.3       1 ACP         0.1067
     20 O2'        -0.2103    1.4454    1.4152 O.3       1 ACP        -0.6053
     21 C1'         0.6219    1.9765   -0.7844 C.3       1 ACP         0.4223
     22 N9          0.4237    1.4496   -2.1357 N.pl3     1 ACP        -0.6834
     23 C8          1.4026    0.9717   -2.9660 C.ar      1 ACP         0.5614
     24 N7          0.9183    0.5619   -4.1197 N.2       1 ACP        -0.5751
     25 C5         -0.4330    0.7845   -4.0331 C.ar      1 ACP        -0.2117
     26 C6         -1.4794    0.5615   -4.9225 C.ar      1 ACP         0.7177
     27 N6         -1.2378    0.0044   -6.1899 N.pl3     1 ACP        -0.9401
     28 N1         -2.7406    0.8885   -4.5512 N.ar      1 ACP        -0.8008
     29 C2         -2.9113    1.4216   -3.3172 C.ar      1 ACP         0.6565
     30 N3         -1.9824    1.6843   -2.3721 N.ar      1 ACP        -0.7061
     31 C4         -0.7613    1.3370   -2.8054 C.ar      1 ACP         0.5715
     32 HOG3        6.3871    0.8540   -3.1101 H         1 ACP         0.4226
     33 HOB2        3.8317   -0.8368    1.0324 H         1 ACP         0.4482
     34 H3B1        5.9799   -3.1815   -1.2455 H         1 ACP         0.1012
     35 H3B2        7.4706   -2.2451   -1.1878 H         1 ACP         0.1012
     36 H5'1        4.4844    2.9853    0.0382 H         1 ACP         0.0481
     37 H5'2        4.3192    1.3445   -0.6390 H         1 ACP         0.0481
     38 H4'         2.3751    2.7029    1.3156 H         1 ACP         0.0904
     39 H3'         2.4336   -0.1217   -0.0015 H         1 ACP         0.0809
     40 HO3'        1.7160   -0.6716    2.0397 H         1 ACP         0.4528
     41 H2'         0.0316    0.0155   -0.0339 H         1 ACP         0.0594
     42 HO2'       -0.1608    0.7921    2.1351 H         1 ACP         0.4344
     43 H1'        -0.1474    2.7798   -0.6651 H         1 ACP         0.1127
     44 H8          2.4442    0.9470   -2.6763 H         1 ACP         0.1050
     45 HN61       -0.2955   -0.1901   -6.4713 H         1 ACP         0.4211
     46 HN62       -1.9987   -0.1045   -6.8334 H         1 ACP         0.4211
     47 H2         -3.9335    1.6716   -3.0534 H         1 ACP         0.0375
@<TRIPOS>BOND
     1    1    2 2
     2    1    3 1
     3    1    4 1
     4    1    8 1
     5    4   32 1
     6    5    6 2
     7    5    7 1
     8    5    8 1
     9    5   12 1
    10    7   33 1
    11    8   34 1
    12    8   35 1
    13    9   10 2
    14    9   11 1
    15    9   12 1
    16    9   13 1
    17   13   14 1
    18   14   15 1
    19   14   36 1
    20   14   37 1
    21   15   16 1
    22   15   17 1
    23   15   38 1
    24   16   21 1
    25   17   18 1
    26   17   19 1
    27   17   39 1
    28   18   40 1
    29   19   20 1
    30   19   21 1
    31   19   41 1
    32   20   42 1
    33   21   22 1
    34   21   43 1
    35   22   23 ar
    36   22   31 ar
    37   23   24 ar
    38   23   44 1
    39   24   25 ar
    40   25   26 ar
    41   25   31 ar
    42   26   27 1
    43   26   28 ar
    44   27   45 1
    45   27   46 1
    46   28   29 ar
    47   29   30 ar
    48   29   47 1
    49   30   31 ar
@<TRIPOS>SUBSTRUCTURE
     1 ACP         1 GROUP 0 A     ****
@<TRIPOS>MOLECULE
[[[5-(6-aminopurin-9-yl)-3,4-dihydroxy-tetrahydrofuran-2-yl]methoxy-oxido-phosphoryl]oxy-hydroxy-phosphoryl]methyl-hydroxy-phosphinate
   47    49     1     0     0
SMALL
USER_CHARGES

@<TRIPOS>ATOM
      1 PG          5.6936    4.3972   -5.2885 P.3       1 ACP         1.3516
      2 O1G         6.7394    3.4960   -4.6741 O.co2     1 ACP        -0.8379
      3 O2G         5.9386    5.8685   -5.5312 O.co2     1 ACP        -0.8379
      4 O3G         5.1214    3.7113   -6.6531 O.3       1 ACP        -0.7980
      5 PB          4.1102    4.6721   -2.5007 P.3       1 ACP         1.7688
      6 O1B         2.7734    4.4824   -1.8486 O.2       1 ACP        -0.9167
      7 O2B         4.6824    6.1826   -2.4495 O.3       1 ACP        -0.8201
      8 C3B         4.1667    4.2519   -4.2557 C.3       1 ACP        -0.6097
      9 PA          5.9686    3.7223   -0.4032 P.3       1 ACP         1.5979
     10 O1A         6.3362    5.1287    0.0170 O.co2     1 ACP        -0.8617
     11 O2A         6.9928    2.6093   -0.3583 O.co2     1 ACP        -0.8617
     12 O3A         5.3191    3.7875   -1.8990 O.3       1 ACP        -0.8283
     13 O5'         4.6405    3.2701    0.4379 O.3       1 ACP        -0.5783
     14 C5'         4.0922    1.9801    0.2227 C.3       1 ACP         0.1980
     15 C4'         2.5944    2.0310    0.4653 C.3       1 ACP         0.0815
     16 O4'         1.9327    2.5740   -0.6889 O.3       1 ACP        -0.4127
     17 C3'         1.9685    0.6634    0.6767 C.3       1 ACP         0.0890
     18 O3'         2.1425    0.1975    1.9977 O.3       1 ACP        -0.6221
     19 C2'         0.5176    0.9128    0.3099 C.3       1 ACP         0.1067
     20 O2'        -0.2103    1.4454    1.4152 O.3       1 ACP        -0.6053
     21 C1'         0.6219    1.9765   -0.7844 C.3       1 ACP         0.4223
     22 N9          0.4237    1.4496   -2.1357 N.pl3     1 ACP        -0.6834
     23 C8          1.4026    0.9717   -2.9660 C.ar      1 ACP         0.5614
     24 N7          0.9183    0.5619   -4.1197 N.2       1 ACP        -0.5751
     25 C5         -0.4330    0.7845   -4.0331 C.ar      1 ACP        -0.2117
     26 C6         -1.4794    0.5615   -4.9225 C.ar      1 ACP         0.7177
     27 N6         -1.2378    0.0044   -6.1899 N.pl3     1 ACP        -0.9401
     28 N1         -2.7406    0.8885   -4.5512 N.ar      1 ACP        -0.8008
     29 C2         -2.9113    1.4216   -3.3172 C.ar      1 ACP         0.6565
     30 N3         -1.9824    1.6843   -2.3721 N.ar      1 ACP        -0.7061
     31 C4         -0.7613    1.3370   -2.8054 C.ar      1 ACP         0.5715
     32 HOG3        5.7508    3.5237   -7.3818 H         1 ACP         0.4226
     33 HOB2        4.8356    6.6031   -1.5767 H         1 ACP         0.4482
     34 H3B1        3.4001    4.8478   -4.7639 H         1 ACP         0.1012
     35 H3B2        3.8660    3.2023   -4.3423 H         1 ACP         0.1012
     36 H5'1        4.3030    1.6731   -0.8066 H         1 ACP         0.0481
     37 H5'2        4.5679    1.2740    0.9106 H         1 ACP         0.0481
     38 H4'         2.3751    2.7029    1.3156 H         1 ACP         0.0904
     39 H3'         2.4336   -0.1217   -0.0015 H         1 ACP         0.0809
     40 HO3'        1.7160   -0.6716    2.0397 H         1 ACP         0.4528
     41 H2'         0.0316    0.0155   -0.0339 H         1 ACP         0.0594
     42 HO2'       -0.1608    0.7921    2.1351 H         1 ACP         0.4344
     43 H1'        -0.1474    2.7798   -0.6651 H         1 ACP         0.1127
     44 H8          2.4442    0.9470   -2.6763 H         1 ACP         0.1050
     45 HN61       -0.2955   -0.1901   -6.4713 H         1 ACP         0.4211
     46 HN62       -1.9987   -0.1045   -6.8334 H         1 ACP         0.4211
     47 H2         -3.9335    1.6716   -3.0534 H         1 ACP         0.0375
@<TRIPOS>BOND
     1    1    2 2
     2    1    3 1
     3    1    4 1
     4    1    8 1
     5    4   32 1
     6    5    6 2
     7    5    7 1
     8    5    8 1
     9    5   12 1
    10    7   33 1
    11    8   34 1
    12    8   35 1
    13    9   10 2
    14    9   11 1
    15    9   12 1
    16    9   13 1
    17   13   14 1
    18   14   15 1
    19   14   36 1
    20   14   37 1
    21   15   16 1
    22   15   17 1
    23   15   38 1
    24   16   21 1
    25   17   18 1
    26   17   19 1
    27   17   39 1
    28   18   40 1
    29   19   20 1
    30   19   21 1
    31   19   41 1
    32   20   42 1
    33   21   22 1
    34   21   43 1
    35   22   23 ar
    36   22   31 ar
    37   23   24 ar
    38   23   44 1
    39   24   25 ar
    40   25   26 ar
    41   25   31 ar
    42   26   27 1
    43   26   28 ar
    44   27   45 1
    45   27   46 1
    46   28   29 ar
    47   29   30 ar
    48   29   47 1
    49   30   31 ar
@<TRIPOS>SUBSTRUCTURE
     1 ACP         1 GROUP 0 A     ****
@<TRIPOS>MOLECULE
[[[5-(6-aminopurin-9-yl)-3,4-dihydroxy-tetrahydrofuran-2-yl]methoxy-oxido-phosphoryl]oxy-hydroxy-phosphoryl]methyl-hydroxy-phosphinate
   47    49     1     0     0
SMALL
USER_CHARGES

@<TRIPOS>ATOM
      1 PG         -2.6360    8.4071    3.0397 P.3       1 ACP         1.3516
      2 O1G        -1.9238    9.1259    1.9175 O.co2     1 ACP        -0.8379
      3 O2G        -3.2498    9.1436    4.2079 O.co2     1 ACP        -0.8379
      4 O3G        -3.7334    7.3764    2.4126 O.3       1 ACP        -0.7980
      5 PB         -0.3564    6.1613    2.7028 P.3       1 ACP         1.7688
      6 O1B         0.5188    5.2074    3.4593 O.2       1 ACP        -0.9167
      7 O2B         0.4380    7.2554    1.8176 O.3       1 ACP        -0.8201
      8 C3B        -1.4588    7.1582    3.7278 C.3       1 ACP        -0.6097
      9 PA         -2.5929    4.4189    1.8558 P.3       1 ACP         1.5979
     10 O1A        -3.1012    4.0084    0.4909 O.co2     1 ACP        -0.8617
     11 O2A        -3.5438    4.9443    2.9091 O.co2     1 ACP        -0.8617
     12 O3A        -1.3812    5.4927    1.6499 O.3       1 ACP        -0.8283
     13 O5'        -1.7337    3.1724    2.4753 O.3       1 ACP        -0.5783
     14 C5'        -0.8811    2.4285    1.6206 C.3       1 ACP         0.1980
     15 C4'        -0.1994    1.3333    2.4288 C.3       1 ACP         0.0815
     16 O4'        -1.1285    0.2356    2.5840 O.3       1 ACP        -0.4127
     17 C3'         1.0324    0.7610    1.7344 C.3       1 ACP         0.0890
     18 O3'         1.9175    0.2377    2.7247 O.3       1 ACP        -0.6221
     19 C2'         0.4468   -0.3802    0.9263 C.3       1 ACP         0.1067
     20 O2'         1.3993   -1.3703    0.5961 O.3       1 ACP        -0.6053
     21 C1'        -0.6159   -0.9100    1.8769 C.3       1 ACP         0.4223
     22 N9         -1.7127   -1.6108    1.2130 N.pl3     1 ACP        -0.6834
     23 C8         -2.0877   -2.9101    1.4304 C.ar      1 ACP         0.5614
     24 N7         -3.1152   -3.2613    0.6857 N.2       1 ACP        -0.5751
     25 C5         -3.4186   -2.1409   -0.0462 C.ar      1 ACP        -0.2117
     26 C6         -4.3953   -1.8809   -1.0023 C.ar      1 ACP         0.7177
     27 N6         -5.3118   -2.8767   -1.3812 N.pl3     1 ACP        -0.9401
     28 N1         -4.4538   -0.6507   -1.5667 N.ar      1 ACP        -0.8008
     29 C2         -3.5442    0.2679   -1.1609 C.ar      1 ACP         0.6565
     30 N3         -2.5561    0.1361   -0.2491 N.ar      1 ACP        -0.7061
     31 C4         -2.5568   -1.1019    0.2674 C.ar      1 ACP         0.5715
     32 HOG3       -4.4513    7.7414    1.8525 H         1 ACP         0.4226
     33 HOB2        1.0396    6.9456    1.1074 H         1 ACP         0.4482
     34 H3B1       -0.8395    7.6951    4.4553 H         1 ACP         0.1012
     35 H3B2       -2.0857    6.4609    4.2937 H         1 ACP         0.1012
     36 H5'1       -1.4802    1.9928    0.8147 H         1 ACP         0.0481
     37 H5'2       -0.1369    3.1042    1.1873 H         1 ACP         0.0481
     38 H4'         0.0403    1.7078    3.4343 H         1 ACP         0.0904
     39 H3'         1.5906    1.4859    1.1353 H         1 ACP         0.0809
     40 HO3'        2.1521    0.9800    3.3017 H         1 ACP         0.4528
     41 H2'        -0.0017    0.0018    0.0005 H         1 ACP         0.0594
     42 HO2'        0.9369   -2.0558    0.0825 H         1 ACP         0.4344
     43 H1'        -0.1998   -1.6319    2.6178 H         1 ACP         0.1127
     44 H8         -1.5778   -3.5473    2.1399 H         1 ACP         0.1050
     45 HN61       -5.2294   -3.7965   -0.9914 H         1 ACP         0.4211
     46 HN62       -5.9774   -2.6837   -2.1055 H         1 ACP         0.4211
     47 H2         -3.6201    1.2414   -1.6336 H         1 ACP         0.0375
@<TRIPOS>BOND
     1    1    2 2
     2    1    3 1
     3    1    4 1
     4    1    8 1
     5    4   32 1
     6    5    6 2
     7    5    7 1
     8    5    8 1
     9    5   12 1
    10    7   33 1
    11    8   34 1
    12    8   35 1
    13    9   10 2
    14    9   11 1
    15    9   12 1
    16    9   13 1
    17   13   14 1
    18   14   15 1
    19   14   36 1
    20   14   37 1
    21   15   16 1
    22   15   17 1
    23   15   38 1
    24   16   21 1
    25   17   18 1
    26   17   19 1
    27   17   39 1
    28   18   40 1
    29   19   20 1
    30   19   21 1
    31   19   41 1
    32   20   42 1
    33   21   22 1
    34   21   43 1
    35   22   23 ar
    36   22   31 ar
    37   23   24 ar
    38   23   44 1
    39   24   25 ar
    40   25   26 ar
    41   25   31 ar
    42   26   27 1
    43   26   28 ar
    44   27   45 1
    45   27   46 1
    46   28   29 ar
    47   29   30 ar
    48   29   47 1
    49   30   31 ar
@<TRIPOS>SUBSTRUCTURE
     1 ACP         1 GROUP 0 A     ****
@<TRIPOS>MOLECULE
[[[5-(6-aminopurin-9-yl)-3,4-dihydroxy-tetrahydrofuran-2-yl]methoxy-oxido-phosphoryl]oxy-hydroxy-phosphoryl]methyl-hydroxy-phosphinate
   47    49     1     0     0
SMALL
USER_CHARGES

@<TRIPOS>ATOM
      1 PG          2.8196    4.3885   -4.6262 P.3       1 ACP         1.3516
      2 O1G         2.0025    5.6366   -4.8671 O.co2     1 ACP        -0.8379
      3 O2G         2.3665    3.2971   -3.6842 O.co2     1 ACP        -0.8379
      4 O3G         3.2361    3.7289   -6.0585 O.3       1 ACP        -0.7980
      5 PB          5.8324    3.7779   -3.6753 P.3       1 ACP         1.7688
      6 O1B         7.1190    4.4228   -3.2549 O.2       1 ACP        -0.9167
      7 O2B         5.9402    2.8385   -4.9859 O.3       1 ACP        -0.8201
      8 C3B         4.5019    4.9288   -4.0813 C.3       1 ACP        -0.6097
      9 PA          5.6604    1.4686   -1.8332 P.3       1 ACP         1.5979
     10 O1A         6.8078    1.8451   -0.9214 O.co2     1 ACP        -0.8617
     11 O2A         5.8179    0.3686   -2.8602 O.co2     1 ACP        -0.8617
     12 O3A         5.1332    2.8212   -2.5790 O.3       1 ACP        -0.8283
     13 O5'         4.3515    1.1573   -0.9028 O.3       1 ACP        -0.5783
     14 C5'         4.0922    1.9801    0.2227 C.3       1 ACP         0.1980
     15 C4'         2.5944    2.0310    0.4653 C.3       1 ACP         0.0815
     16 O4'         1.9327    2.5740   -0.6889 O.3       1 ACP        -0.4127
     17 C3'         1.9685    0.6634    0.6767 C.3       1 ACP         0.0890
     18 O3'         2.1425    0.1975    1.9977 O.3       1 ACP        -0.6221
     19 C2'         0.5176    0.9128    0.3099 C.3       1 ACP         0.1067
     20 O2'        -0.2103    1.4454    1.4152 O.3       1 ACP        -0.6053
     21 C1'         0.6219    1.9765   -0.7844 C.3       1 ACP         0.4223
     22 N9          0.4237    1.4496   -2.1357 N.pl3     1 ACP        -0.6834
     23 C8          1.4026    0.9717   -2.9660 C.ar      1 ACP         0.5614
     24 N7          0.9183    0.5619   -4.1197 N.2       1 ACP        -0.5751
     25 C5         -0.4330    0.7845   -4.0331 C.ar      1 ACP        -0.2117
     26 C6         -1.4794    0.5615   -4.9225 C.ar      1 ACP         0.7177
     27 N6         -1.2378    0.0044   -6.1899 N.pl3     1 ACP        -0.9401
     28 N1         -2.7406    0.8885   -4.5512 N.ar      1 ACP        -0.8008
     29 C2         -2.9113    1.4216   -3.3172 C.ar      1 ACP         0.6565
     30 N3         -1.9824    1.6843   -2.3721 N.ar      1 ACP        -0.7061
     31 C4         -0.7613    1.3370   -2.8054 C.ar      1 ACP         0.5715
     32 HOG3        2.5220    3.4477   -6.6694 H         1 ACP         0.4226
     33 HOB2        6.5431    2.0651   -4.9677 H         1 ACP         0.4482
     34 H3B1        4.8721    5.6003   -4.8643 H         1 ACP         0.1012
     35 H3B2        4.3271    5.5414   -3.1904 H         1 ACP         0.1012
     36 H5'1        4.6070    1.5616    1.0933 H         1 ACP         0.0481
     37 H5'2        4.4825    2.9835    0.0252 H         1 ACP         0.0481
     38 H4'         2.3751    2.7029    1.3156 H         1 ACP         0.0904
     39 H3'         2.4336   -0.1217   -0.0015 H         1 ACP         0.0809
     40 HO3'        1.7160   -0.6716    2.0397 H         1 ACP         0.4528
     41 H2'         0.0316    0.0155   -0.0339 H         1 ACP         0.0594
     42 HO2'       -0.1608    0.7921    2.1351 H         1 ACP         0.4344
     43 H1'        -0.1474    2.7798   -0.6651 H         1 ACP         0.1127
     44 H8          2.4442    0.9470   -2.6763 H         1 ACP         0.1050
     45 HN61       -0.2955   -0.1901   -6.4713 H         1 ACP         0.4211
     46 HN62       -1.9987   -0.1045   -6.8334 H         1 ACP         0.4211
     47 H2         -3.9335    1.6716   -3.0534 H         1 ACP         0.0375
@<TRIPOS>BOND
     1    1    2 2
     2    1    3 1
     3    1    4 1
     4    1    8 1
     5    4   32 1
     6    5    6 2
     7    5    7 1
     8    5    8 1
     9    5   12 1
    10    7   33 1
    11    8   34 1
    12    8   35 1
    13    9   10 2
    14    9   11 1
    15    9   12 1
    16    9   13 1
    17   13   14 1
    18   14   15 1
    19   14   36 1
    20   14   37 1
    21   15   16 1
    22   15   17 1
    23   15   38 1
    24   16   21 1
    25   17   18 1
    26   17   19 1
    27   17   39 1
    28   18   40 1
    29   19   20 1
    30   19   21 1
    31   19   41 1
    32   20   42 1
    33   21   22 1
    34   21   43 1
    35   22   23 ar
    36   22   31 ar
    37   23   24 ar
    38   23   44 1
    39   24   25 ar
    40   25   26 ar
    41   25   31 ar
    42   26   27 1
    43   26   28 ar
    44   27   45 1
    45   27   46 1
    46   28   29 ar
    47   29   30 ar
    48   29   47 1
    49   30   31 ar
@<TRIPOS>SUBSTRUCTURE
     1 ACP         1 GROUP 0 A     ****
@<TRIPOS>MOLECULE
[[[5-(6-aminopurin-9-yl)-3,4-dihydroxy-tetrahydrofuran-2-yl]methoxy-oxido-phosphoryl]oxy-hydroxy-phosphoryl]methyl-hydroxy-phosphinate
   47    49     1     0     0
SMALL
USER_CHARGES

@<TRIPOS>ATOM
      1 PG         -6.3818    1.6884   -4.3162 P.3       1 ACP         1.3516
      2 O1G        -5.4265    2.7728   -3.8749 O.co2     1 ACP        -0.8379
      3 O2G        -7.3660    1.0451   -3.3668 O.co2     1 ACP        -0.8379
      4 O3G        -7.1651    2.1715   -5.6627 O.3       1 ACP        -0.7980
      5 PB         -4.0914   -0.5668   -4.1652 P.3       1 ACP         1.7688
      6 O1B        -3.3872   -1.6262   -4.9587 O.2       1 ACP        -0.9167
      7 O2B        -4.8578   -1.1025   -2.8471 O.3       1 ACP        -0.8201
      8 C3B        -5.3694    0.3353   -5.0668 C.3       1 ACP        -0.6097
      9 PA         -2.2218    1.7170   -4.3753 P.3       1 ACP         1.5979
     10 O1A        -3.1196    2.6481   -5.1608 O.co2     1 ACP        -0.8617
     11 O2A        -1.0792    0.9915   -5.0518 O.co2     1 ACP        -0.8617
     12 O3A        -3.1616    0.6279   -3.6045 O.3       1 ACP        -0.8283
     13 O5'        -1.6519    2.5337   -3.0776 O.3       1 ACP        -0.5783
     14 C5'        -0.7794    1.8744   -2.1748 C.3       1 ACP         0.1980
     15 C4'        -0.9699    2.4597   -0.7819 C.3       1 ACP         0.0815
     16 O4'        -2.1475    1.8640   -0.2014 O.3       1 ACP        -0.4127
     17 C3'         0.1697    2.1347    0.1695 C.3       1 ACP         0.0890
     18 O3'         0.1809    3.0982    1.2223 O.3       1 ACP        -0.6221
     19 C2'        -0.2543    0.7880    0.7187 C.3       1 ACP         0.1067
     20 O2'         0.3606    0.4944    1.9582 O.3       1 ACP        -0.6053
     21 C1'        -1.7682    0.9516    0.8548 C.3       1 ACP         0.4223
     22 N9         -2.5926   -0.2553    0.7436 N.pl3     1 ACP        -0.6834
     23 C8         -3.5599   -0.4866   -0.1983 C.ar      1 ACP         0.5614
     24 N7         -4.1294   -1.6639   -0.0461 N.2       1 ACP        -0.5751
     25 C5         -3.5041   -2.2191    1.0420 C.ar      1 ACP        -0.2117
     26 C6         -3.6605   -3.4390    1.6925 C.ar      1 ACP         0.7177
     27 N6         -4.6108   -4.3735    1.2468 N.pl3     1 ACP        -0.9401
     28 N1         -2.8820   -3.7179    2.7657 N.ar      1 ACP        -0.8008
     29 C2         -1.9837   -2.7784    3.1481 C.ar      1 ACP         0.6565
     30 N3         -1.7408   -1.5668    2.6022 N.ar      1 ACP        -0.7061
     31 C4         -2.5438   -1.3578    1.5483 C.ar      1 ACP         0.5715
     32 HOG3       -7.7113    2.9852   -5.6196 H         1 ACP         0.4226
     33 HOB2       -4.3394   -1.5517   -2.1459 H         1 ACP         0.4482
     34 H3B1       -6.0851   -0.4000   -5.4515 H         1 ACP         0.1012
     35 H3B2       -4.8839    0.7941   -5.9347 H         1 ACP         0.1012
     36 H5'1       -1.0116    0.8047   -2.1754 H         1 ACP         0.0481
     37 H5'2        0.2522    2.0163   -2.5120 H         1 ACP         0.0481
     38 H4'        -1.1469    3.5409   -0.8522 H         1 ACP         0.0904
     39 H3'         1.1601    2.1310   -0.2934 H         1 ACP         0.0809
     40 HO3'        0.3098    3.9616    0.8017 H         1 ACP         0.4528
     41 H2'        -0.0024   -0.0091    0.0062 H         1 ACP         0.0594
     42 HO2'        0.0384   -0.3797    2.2403 H         1 ACP         0.4344
     43 H1'        -2.0584    1.4255    1.8301 H         1 ACP         0.1127
     44 H8         -3.8030    0.2355   -0.9657 H         1 ACP         0.1050
     45 HN61       -5.2130   -4.1372    0.4810 H         1 ACP         0.4211
     46 HN62       -4.7404   -5.2263    1.7576 H         1 ACP         0.4211
     47 H2         -1.3778   -3.0348    4.0107 H         1 ACP         0.0375
@<TRIPOS>BOND
     1    1    2 2
     2    1    3 1
     3    1    4 1
     4    1    8 1
     5    4   32 1
     6    5    6 2
     7    5    7 1
     8    5    8 1
     9    5   12 1
    10    7   33 1
    11    8   34 1
    12    8   35 1
    13    9   10 2
    14    9   11 1
    15    9   12 1
    16    9   13 1
    17   13   14 1
    18   14   15 1
    19   14   36 1
    20   14   37 1
    21   15   16 1
    22   15   17 1
    23   15   38 1
    24   16   21 1
    25   17   18 1
    26   17   19 1
    27   17   39 1
    28   18   40 1
    29   19   20 1
    30   19   21 1
    31   19   41 1
    32   20   42 1
    33   21   22 1
    34   21   43 1
    35   22   23 ar
    36   22   31 ar
    37   23   24 ar
    38   23   44 1
    39   24   25 ar
    40   25   26 ar
    41   25   31 ar
    42   26   27 1
    43   26   28 ar
    44   27   45 1
    45   27   46 1
    46   28   29 ar
    47   29   30 ar
    48   29   47 1
    49   30   31 ar
@<TRIPOS>SUBSTRUCTURE
     1 ACP         1 GROUP 0 A     ****
@<TRIPOS>MOLECULE
[[[5-(6-aminopurin-9-yl)-3,4-dihydroxy-tetrahydrofuran-2-yl]methoxy-oxido-phosphoryl]oxy-hydroxy-phosphoryl]methyl-hydroxy-phosphinate
   47    49     1     0     0
SMALL
USER_CHARGES

@<TRIPOS>ATOM
      1 PG          1.3421    7.5865   -1.4275 P.3       1 ACP         1.3516
      2 O1G         0.7526    7.3161   -2.7923 O.co2     1 ACP        -0.8379
      3 O2G         2.3800    8.6601   -1.1954 O.co2     1 ACP        -0.8379
      4 O3G         0.1376    7.7540   -0.3406 O.3       1 ACP        -0.7980
      5 PB          1.2343    4.3949   -1.0324 P.3       1 ACP         1.7688
      6 O1B         1.9712    3.2255   -0.4512 O.2       1 ACP        -0.9167
      7 O2B         0.9836    4.3150   -2.6269 O.3       1 ACP        -0.8201
      8 C3B         2.0437    5.9928   -0.8055 C.3       1 ACP        -0.6097
      9 PA         -0.7383    5.0057    1.0867 P.3       1 ACP         1.5979
     10 O1A        -2.2514    4.9889    1.1027 O.co2     1 ACP        -0.8617
     11 O2A         0.0270    6.2040    1.6044 O.co2     1 ACP        -0.8617
     12 O3A        -0.2379    4.6695   -0.4299 O.3       1 ACP        -0.8283
     13 O5'        -0.2060    3.6558    1.8418 O.3       1 ACP        -0.5783
     14 C5'        -0.8811    2.4285    1.6206 C.3       1 ACP         0.1980
     15 C4'        -0.1994    1.3333    2.4288 C.3       1 ACP         0.0815
     16 O4'        -1.1285    0.2356    2.5840 O.3       1 ACP        -0.4127
     17 C3'         1.0324    0.7610    1.7344 C.3       1 ACP         0.0890
     18 O3'         1.9175    0.2377    2.7247 O.3       1 ACP        -0.6221
     19 C2'         0.4468   -0.3802    0.9263 C.3       1 ACP         0.1067
     20 O2'         1.3993   -1.3703    0.5961 O.3       1 ACP        -0.6053
     21 C1'        -0.6159   -0.9100    1.8769 C.3       1 ACP         0.4223
     22 N9         -1.7127   -1.6108    1.2130 N.pl3     1 ACP        -0.6834
     23 C8         -2.8641   -1.0399    0.7392 C.ar      1 ACP         0.5614
     24 N7         -3.6659   -1.9257    0.1858 N.2       1 ACP        -0.5751
     25 C5         -3.0053   -3.1223    0.3069 C.ar      1 ACP        -0.2117
     26 C6         -3.3321   -4.4178   -0.0813 C.ar      1 ACP         0.7177
     27 N6         -4.5476   -4.6866   -0.7335 N.pl3     1 ACP        -0.9401
     28 N1         -2.4608   -5.4225    0.1773 N.ar      1 ACP        -0.8008
     29 C2         -1.3053   -5.1020    0.8081 C.ar      1 ACP         0.6565
     30 N3         -0.8788   -3.8921    1.2315 N.ar      1 ACP        -0.7061
     31 C4         -1.7870   -2.9477    0.9438 C.ar      1 ACP         0.5715
     32 HOG3       -0.5193    8.4697   -0.4769 H         1 ACP         0.4226
     33 HOB2        0.4656    3.5651   -2.9893 H         1 ACP         0.4482
     34 H3B1        3.0500    5.9181   -1.2330 H         1 ACP         0.1012
     35 H3B2        2.1641    6.1390    0.2732 H         1 ACP         0.1012
     36 H5'1       -1.9255    2.5382    1.9294 H         1 ACP         0.0481
     37 H5'2       -0.8473    2.1933    0.5521 H         1 ACP         0.0481
     38 H4'         0.0403    1.7078    3.4343 H         1 ACP         0.0904
     39 H3'         1.5906    1.4859    1.1353 H         1 ACP         0.0809
     40 HO3'        2.6839   -0.1150    2.2479 H         1 ACP         0.4528
     41 H2'        -0.0017    0.0018    0.0005 H         1 ACP         0.0594
     42 HO2'        0.9369   -2.0558    0.0825 H         1 ACP         0.4344
     43 H1'        -0.1998   -1.6319    2.6178 H         1 ACP         0.1127
     44 H8         -3.0609    0.0200    0.8250 H         1 ACP         0.1050
     45 HN61       -4.7432   -5.6184   -1.0469 H         1 ACP         0.4211
     46 HN62       -5.1624   -3.9284   -0.9616 H         1 ACP         0.4211
     47 H2         -0.6318   -5.9307    0.9993 H         1 ACP         0.0375
@<TRIPOS>BOND
     1    1    2 2
     2    1    3 1
     3    1    4 1
     4    1    8 1
     5    4   32 1
     6    5    6 2
     7    5    7 1
     8    5    8 1
     9    5   12 1
    10    7   33 1
    11    8   34 1
    12    8   35 1
    13    9   10 2
    14    9   11 1
    15    9   12 1
    16    9   13 1
    17   13   14 1
    18   14   15 1
    19   14   36 1
    20   14   37 1
    21   15   16 1
    22   15   17 1
    23   15   38 1
    24   16   21 1
    25   17   18 1
    26   17   19 1
    27   17   39 1
    28   18   40 1
    29   19   20 1
    30   19   21 1
    31   19   41 1
    32   20   42 1
    33   21   22 1
    34   21   43 1
    35   22   23 ar
    36   22   31 ar
    37   23   24 ar
    38   23   44 1
    39   24   25 ar
    40   25   26 ar
    41   25   31 ar
    42   26   27 1
    43   26   28 ar
    44   27   45 1
    45   27   46 1
    46   28   29 ar
    47   29   30 ar
    48   29   47 1
    49   30   31 ar
@<TRIPOS>SUBSTRUCTURE
     1 ACP         1 GROUP 0 A     ****
@<TRIPOS>MOLECULE
[[[5-(6-aminopurin-9-yl)-3,4-dihydroxy-tetrahydrofuran-2-yl]methoxy-oxido-phosphoryl]oxy-hydroxy-phosphoryl]methyl-hydroxy-phosphinate
   47    49     1     0     0
SMALL
USER_CHARGES

@<TRIPOS>ATOM
      1 PG          6.8760    4.0475    5.4754 P.3       1 ACP         1.3516
      2 O1G         6.7116    3.3498    6.8056 O.co2     1 ACP        -0.8379
      3 O2G         7.3645    5.4735    5.3674 O.co2     1 ACP        -0.8379
      4 O3G         7.7441    3.1004    4.4706 O.3       1 ACP        -0.7980
      5 PB          4.9627    4.6507    2.9596 P.3       1 ACP         1.7688
      6 O1B         5.1779    6.1312    2.8593 O.2       1 ACP        -0.9167
      7 O2B         3.4702    4.1549    2.5877 O.3       1 ACP        -0.8201
      8 C3B         5.2513    3.9495    4.5981 C.3       1 ACP        -0.6097
      9 PA          6.0981    3.6803    0.4053 P.3       1 ACP         1.5979
     10 O1A         6.9910    2.5052    0.0710 O.co2     1 ACP        -0.8617
     11 O2A         6.4244    5.0681   -0.1019 O.co2     1 ACP        -0.8617
     12 O3A         5.9102    3.7366    2.0255 O.3       1 ACP        -0.8283
     13 O5'         4.5669    3.2940   -0.0211 O.3       1 ACP        -0.5783
     14 C5'         4.0922    1.9801    0.2227 C.3       1 ACP         0.1980
     15 C4'         2.5944    2.0310    0.4653 C.3       1 ACP         0.0815
     16 O4'         1.9327    2.5740   -0.6889 O.3       1 ACP        -0.4127
     17 C3'         1.9685    0.6634    0.6767 C.3       1 ACP         0.0890
     18 O3'         2.1425    0.1975    1.9977 O.3       1 ACP        -0.6221
     19 C2'         0.5176    0.9128    0.3099 C.3       1 ACP         0.1067
     20 O2'        -0.2103    1.4454    1.4152 O.3       1 ACP        -0.6053
     21 C1'         0.6219    1.9765   -0.7844 C.3       1 ACP         0.4223
     22 N9          0.4237    1.4496   -2.1357 N.pl3     1 ACP        -0.6834
     23 C8          1.4026    0.9717   -2.9660 C.ar      1 ACP         0.5614
     24 N7          0.9183    0.5619   -4.1197 N.2       1 ACP        -0.5751
     25 C5         -0.4330    0.7845   -4.0331 C.ar      1 ACP        -0.2117
     26 C6         -1.4794    0.5615   -4.9225 C.ar      1 ACP         0.7177
     27 N6         -1.2378    0.0044   -6.1899 N.pl3     1 ACP        -0.9401
     28 N1         -2.7406    0.8885   -4.5512 N.ar      1 ACP        -0.8008
     29 C2         -2.9113    1.4216   -3.3172 C.ar      1 ACP         0.6565
     30 N3         -1.9824    1.6843   -2.3721 N.ar      1 ACP        -0.7061
     31 C4         -0.7613    1.3370   -2.8054 C.ar      1 ACP         0.5715
     32 HOG3        8.6540    2.8474    4.7358 H         1 ACP         0.4226
     33 HOB2        3.1188    4.3375    1.6903 H         1 ACP         0.4482
     34 H3B1        4.9960    2.8848    4.5525 H         1 ACP         0.1012
     35 H3B2        4.5342    4.4218    5.2780 H         1 ACP         0.1012
     36 H5'1        4.3180    1.3550   -0.6470 H         1 ACP         0.0481
     37 H5'2        4.6085    1.5739    1.0983 H         1 ACP         0.0481
     38 H4'         2.3751    2.7029    1.3156 H         1 ACP         0.0904
     39 H3'         2.4336   -0.1217   -0.0015 H         1 ACP         0.0809
     40 HO3'        1.7160   -0.6716    2.0397 H         1 ACP         0.4528
     41 H2'         0.0316    0.0155   -0.0339 H         1 ACP         0.0594
     42 HO2'       -0.1608    0.7921    2.1351 H         1 ACP         0.4344
     43 H1'        -0.1474    2.7798   -0.6651 H         1 ACP         0.1127
     44 H8          2.4442    0.9470   -2.6763 H         1 ACP         0.1050
     45 HN61       -0.2955   -0.1901   -6.4713 H         1 ACP         0.4211
     46 HN62       -1.9987   -0.1045   -6.8334 H         1 ACP         0.4211
     47 H2         -3.9335    1.6716   -3.0534 H         1 ACP         0.0375
@<TRIPOS>BOND
     1    1    2 2
     2    1    3 1
     3    1    4 1
     4    1    8 1
     5    4   32 1
     6    5    6 2
     7    5    7 1
     8    5    8 1
     9    5   12 1
    10    7   33 1
    11    8   34 1
    12    8   35 1
    13    9   10 2
    14    9   11 1
    15    9   12 1
    16    9   13 1
    17   13   14 1
    18   14   15 1
    19   14   36 1
    20   14   37 1
    21   15   16 1
    22   15   17 1
    23   15   38 1
    24   16   21 1
    25   17   18 1
    26   17   19 1
    27   17   39 1
    28   18   40 1
    29   19   20 1
    30   19   21 1
    31   19   41 1
    32   20   42 1
    33   21   22 1
    34   21   43 1
    35   22   23 ar
    36   22   31 ar
    37   23   24 ar
    38   23   44 1
    39   24   25 ar
    40   25   26 ar
    41   25   31 ar
    42   26   27 1
    43   26   28 ar
    44   27   45 1
    45   27   46 1
    46   28   29 ar
    47   29   30 ar
    48   29   47 1
    49   30   31 ar
@<TRIPOS>SUBSTRUCTURE
     1 ACP         1 GROUP 0 A     ****
@<TRIPOS>MOLECULE
[[[5-(6-aminopurin-9-yl)-3,4-dihydroxy-tetrahydrofuran-2-yl]methoxy-oxido-phosphoryl]oxy-hydroxy-phosphoryl]methyl-hydroxy-phosphinate
   47    49     1     0     0
SMALL
USER_CHARGES

@<TRIPOS>ATOM
      1 PG          8.1325   -2.4490   -1.6937 P.3       1 ACP         1.3516
      2 O1G         8.8379   -1.1135   -1.6482 O.co2     1 ACP        -0.8379
      3 O2G         8.1086   -3.3066   -2.9378 O.co2     1 ACP        -0.8379
      4 O3G         8.6035   -3.3541   -0.4213 O.3       1 ACP        -0.7980
      5 PB          5.9087   -1.4897    0.4249 P.3       1 ACP         1.7688
      6 O1B         6.3507   -2.3040    1.6037 O.2       1 ACP        -0.9167
      7 O2B         4.3104   -1.2842    0.3025 O.3       1 ACP        -0.8201
      8 C3B         6.3785   -2.1626   -1.1833 C.3       1 ACP        -0.6097
      9 PA          6.3567    1.2769    1.3738 P.3       1 ACP         1.5979
     10 O1A         6.9560    2.4959    0.7069 O.co2     1 ACP        -0.8617
     11 O2A         6.8130    0.8461    2.7507 O.co2     1 ACP        -0.8617
     12 O3A         6.4917    0.0137    0.3492 O.3       1 ACP        -0.8283
     13 O5'         4.7294    1.4426    1.3699 O.3       1 ACP        -0.5783
     14 C5'         4.0922    1.9801    0.2227 C.3       1 ACP         0.1980
     15 C4'         2.5944    2.0310    0.4653 C.3       1 ACP         0.0815
     16 O4'         1.9327    2.5740   -0.6889 O.3       1 ACP        -0.4127
     17 C3'         1.9685    0.6634    0.6767 C.3       1 ACP         0.0890
     18 O3'         2.1425    0.1975    1.9977 O.3       1 ACP        -0.6221
     19 C2'         0.5176    0.9128    0.3099 C.3       1 ACP         0.1067
     20 O2'        -0.2103    1.4454    1.4152 O.3       1 ACP        -0.6053
     21 C1'         0.6219    1.9765   -0.7844 C.3       1 ACP         0.4223
     22 N9          0.4237    1.4496   -2.1357 N.pl3     1 ACP        -0.6834
     23 C8         -0.7736    1.3475   -2.7932 C.ar      1 ACP         0.5614
     24 N7         -0.6356    0.8373   -3.9991 N.2       1 ACP        -0.5751
     25 C5          0.7095    0.5981   -4.1281 C.ar      1 ACP        -0.2117
     26 C6          1.4733    0.0704   -5.1643 C.ar      1 ACP         0.7177
     27 N6          0.8693   -0.3355   -6.3666 N.pl3     1 ACP        -0.9401
     28 N1          2.8130   -0.0482   -5.0009 N.ar      1 ACP        -0.8008
     29 C2          3.3380    0.3602   -3.8204 C.ar      1 ACP         0.6565
     30 N3          2.7052    0.8841   -2.7480 N.ar      1 ACP        -0.7061
     31 C4          1.3867    0.9726   -2.9785 C.ar      1 ACP         0.5715
     32 HOG3        9.5550   -3.5754   -0.3314 H         1 ACP         0.4226
     33 HOB2        3.8317   -0.8368    1.0324 H         1 ACP         0.4482
     34 H3B1        5.9412   -1.5168   -1.9532 H         1 ACP         0.1012
     35 H3B2        5.8947   -3.1410   -1.2734 H         1 ACP         0.1012
     36 H5'1        4.4844    2.9853    0.0382 H         1 ACP         0.0481
     37 H5'2        4.3192    1.3445   -0.6390 H         1 ACP         0.0481
     38 H4'         2.3751    2.7029    1.3156 H         1 ACP         0.0904
     39 H3'         2.4336   -0.1217   -0.0015 H         1 ACP         0.0809
     40 HO3'        1.7160   -0.6716    2.0397 H         1 ACP         0.4528
     41 H2'         0.0316    0.0155   -0.0339 H         1 ACP         0.0594
     42 HO2'       -0.1608    0.7921    2.1351 H         1 ACP         0.4344
     43 H1'        -0.1474    2.7798   -0.6651 H         1 ACP         0.1127
     44 H8         -1.7070    1.6599   -2.3451 H         1 ACP         0.1050
     45 HN61       -0.1277   -0.2866   -6.4583 H         1 ACP         0.4211
     46 HN62        1.4308   -0.7566   -7.0823 H         1 ACP         0.4211
     47 H2          4.4130    0.2505   -3.7241 H         1 ACP         0.0375
@<TRIPOS>BOND
     1    1    2 2
     2    1    3 1
     3    1    4 1
     4    1    8 1
     5    4   32 1
     6    5    6 2
     7    5    7 1
     8    5    8 1
     9    5   12 1
    10    7   33 1
    11    8   34 1
    12    8   35 1
    13    9   10 2
    14    9   11 1
    15    9   12 1
    16    9   13 1
    17   13   14 1
    18   14   15 1
    19   14   36 1
    20   14   37 1
    21   15   16 1
    22   15   17 1
    23   15   38 1
    24   16   21 1
    25   17   18 1
    26   17   19 1
    27   17   39 1
    28   18   40 1
    29   19   20 1
    30   19   21 1
    31   19   41 1
    32   20   42 1
    33   21   22 1
    34   21   43 1
    35   22   23 ar
    36   22   31 ar
    37   23   24 ar
    38   23   44 1
    39   24   25 ar
    40   25   26 ar
    41   25   31 ar
    42   26   27 1
    43   26   28 ar
    44   27   45 1
    45   27   46 1
    46   28   29 ar
    47   29   30 ar
    48   29   47 1
    49   30   31 ar
@<TRIPOS>SUBSTRUCTURE
     1 ACP         1 GROUP 0 A     ****
@<TRIPOS>MOLECULE
[[[5-(6-aminopurin-9-yl)-3,4-dihydroxy-tetrahydrofuran-2-yl]methoxy-oxido-phosphoryl]oxy-hydroxy-phosphoryl]methyl-hydroxy-phosphinate
   47    49     1     0     0
SMALL
USER_CHARGES

@<TRIPOS>ATOM
      1 PG          1.3421    7.5865   -1.4275 P.3       1 ACP         1.3516
      2 O1G         0.7526    7.3161   -2.7923 O.co2     1 ACP        -0.8379
      3 O2G         2.3800    8.6601   -1.1954 O.co2     1 ACP        -0.8379
      4 O3G         0.1376    7.7540   -0.3406 O.3       1 ACP        -0.7980
      5 PB          1.2343    4.3949   -1.0324 P.3       1 ACP         1.7688
      6 O1B         1.9712    3.2255   -0.4512 O.2       1 ACP        -0.9167
      7 O2B         0.9836    4.3150   -2.6269 O.3       1 ACP        -0.8201
      8 C3B         2.0437    5.9928   -0.8055 C.3       1 ACP        -0.6097
      9 PA         -0.7383    5.0057    1.0867 P.3       1 ACP         1.5979
     10 O1A        -2.2514    4.9889    1.1027 O.co2     1 ACP        -0.8617
     11 O2A         0.0270    6.2040    1.6044 O.co2     1 ACP        -0.8617
     12 O3A        -0.2379    4.6695   -0.4299 O.3       1 ACP        -0.8283
     13 O5'        -0.2060    3.6558    1.8418 O.3       1 ACP        -0.5783
     14 C5'        -0.8811    2.4285    1.6206 C.3       1 ACP         0.1980
     15 C4'        -0.1994    1.3333    2.4288 C.3       1 ACP         0.0815
     16 O4'        -1.1285    0.2356    2.5840 O.3       1 ACP        -0.4127
     17 C3'         1.0324    0.7610    1.7344 C.3       1 ACP         0.0890
     18 O3'         1.9175    0.2377    2.7247 O.3       1 ACP        -0.6221
     19 C2'         0.4468   -0.3802    0.9263 C.3       1 ACP         0.1067
     20 O2'         1.3993   -1.3703    0.5961 O.3       1 ACP        -0.6053
     21 C1'        -0.6159   -0.9100    1.8769 C.3       1 ACP         0.4223
     22 N9         -1.7127   -1.6108    1.2130 N.pl3     1 ACP        -0.6834
     23 C8         -2.0877   -2.9101    1.4304 C.ar      1 ACP         0.5614
     24 N7         -3.1152   -3.2613    0.6857 N.2       1 ACP        -0.5751
     25 C5         -3.4186   -2.1409   -0.0462 C.ar      1 ACP        -0.2117
     26 C6         -4.3953   -1.8809   -1.0023 C.ar      1 ACP         0.7177
     27 N6         -5.3118   -2.8767   -1.3812 N.pl3     1 ACP        -0.9401
     28 N1         -4.4538   -0.6507   -1.5667 N.ar      1 ACP        -0.8008
     29 C2         -3.5442    0.2679   -1.1609 C.ar      1 ACP         0.6565
     30 N3         -2.5561    0.1361   -0.2491 N.ar      1 ACP        -0.7061
     31 C4         -2.5568   -1.1019    0.2674 C.ar      1 ACP         0.5715
     32 HOG3       -0.5193    8.4697   -0.4769 H         1 ACP         0.4226
     33 HOB2        0.4656    3.5651   -2.9893 H         1 ACP         0.4482
     34 H3B1        3.0500    5.9181   -1.2330 H         1 ACP         0.1012
     35 H3B2        2.1641    6.1390    0.2732 H         1 ACP         0.1012
     36 H5'1       -1.9255    2.5382    1.9294 H         1 ACP         0.0481
     37 H5'2       -0.8473    2.1933    0.5521 H         1 ACP         0.0481
     38 H4'         0.0403    1.7078    3.4343 H         1 ACP         0.0904
     39 H3'         1.5906    1.4859    1.1353 H         1 ACP         0.0809
     40 HO3'        2.6839   -0.1150    2.2479 H         1 ACP         0.4528
     41 H2'        -0.0017    0.0018    0.0005 H         1 ACP         0.0594
     42 HO2'        2.0953   -0.9375    0.0709 H         1 ACP         0.4344
     43 H1'        -0.1998   -1.6319    2.6178 H         1 ACP         0.1127
     44 H8         -1.5778   -3.5473    2.1399 H         1 ACP         0.1050
     45 HN61       -5.2294   -3.7965   -0.9914 H         1 ACP         0.4211
     46 HN62       -5.9774   -2.6837   -2.1055 H         1 ACP         0.4211
     47 H2         -3.6201    1.2414   -1.6336 H         1 ACP         0.0375
@<TRIPOS>BOND
     1    1    2 2
     2    1    3 1
     3    1    4 1
     4    1    8 1
     5    4   32 1
     6    5    6 2
     7    5    7 1
     8    5    8 1
     9    5   12 1
    10    7   33 1
    11    8   34 1
    12    8   35 1
    13    9   10 2
    14    9   11 1
    15    9   12 1
    16    9   13 1
    17   13   14 1
    18   14   15 1
    19   14   36 1
    20   14   37 1
    21   15   16 1
    22   15   17 1
    23   15   38 1
    24   16   21 1
    25   17   18 1
    26   17   19 1
    27   17   39 1
    28   18   40 1
    29   19   20 1
    30   19   21 1
    31   19   41 1
    32   20   42 1
    33   21   22 1
    34   21   43 1
    35   22   23 ar
    36   22   31 ar
    37   23   24 ar
    38   23   44 1
    39   24   25 ar
    40   25   26 ar
    41   25   31 ar
    42   26   27 1
    43   26   28 ar
    44   27   45 1
    45   27   46 1
    46   28   29 ar
    47   29   30 ar
    48   29   47 1
    49   30   31 ar
@<TRIPOS>SUBSTRUCTURE
     1 ACP         1 GROUP 0 A     ****
@<TRIPOS>MOLECULE
[[[5-(6-aminopurin-9-yl)-3,4-dihydroxy-tetrahydrofuran-2-yl]methoxy-oxido-phosphoryl]oxy-hydroxy-phosphoryl]methyl-hydroxy-phosphinate
   47    49     1     0     0
SMALL
USER_CHARGES

@<TRIPOS>ATOM
      1 PG          8.1325   -2.4490   -1.6937 P.3       1 ACP         1.3516
      2 O1G         8.8379   -1.1135   -1.6482 O.co2     1 ACP        -0.8379
      3 O2G         8.1086   -3.3066   -2.9378 O.co2     1 ACP        -0.8379
      4 O3G         8.6035   -3.3541   -0.4213 O.3       1 ACP        -0.7980
      5 PB          5.9087   -1.4897    0.4249 P.3       1 ACP         1.7688
      6 O1B         6.3507   -2.3040    1.6037 O.2       1 ACP        -0.9167
      7 O2B         4.3104   -1.2842    0.3025 O.3       1 ACP        -0.8201
      8 C3B         6.3785   -2.1626   -1.1833 C.3       1 ACP        -0.6097
      9 PA          6.3567    1.2769    1.3738 P.3       1 ACP         1.5979
     10 O1A         6.9560    2.4959    0.7069 O.co2     1 ACP        -0.8617
     11 O2A         6.8130    0.8461    2.7507 O.co2     1 ACP        -0.8617
     12 O3A         6.4917    0.0137    0.3492 O.3       1 ACP        -0.8283
     13 O5'         4.7294    1.4426    1.3699 O.3       1 ACP        -0.5783
     14 C5'         4.0922    1.9801    0.2227 C.3       1 ACP         0.1980
     15 C4'         2.5944    2.0310    0.4653 C.3       1 ACP         0.0815
     16 O4'         1.9327    2.5740   -0.6889 O.3       1 ACP        -0.4127
     17 C3'         1.9685    0.6634    0.6767 C.3       1 ACP         0.0890
     18 O3'         2.1425    0.1975    1.9977 O.3       1 ACP        -0.6221
     19 C2'         0.5176    0.9128    0.3099 C.3       1 ACP         0.1067
     20 O2'        -0.2103    1.4454    1.4152 O.3       1 ACP        -0.6053
     21 C1'         0.6219    1.9765   -0.7844 C.3       1 ACP         0.4223
     22 N9          0.4237    1.4496   -2.1357 N.pl3     1 ACP        -0.6834
     23 C8          1.4026    0.9717   -2.9660 C.ar      1 ACP         0.5614
     24 N7          0.9183    0.5619   -4.1197 N.2       1 ACP        -0.5751
     25 C5         -0.4330    0.7845   -4.0331 C.ar      1 ACP        -0.2117
     26 C6         -1.4794    0.5615   -4.9225 C.ar      1 ACP         0.7177
     27 N6         -1.2378    0.0044   -6.1899 N.pl3     1 ACP        -0.9401
     28 N1         -2.7406    0.8885   -4.5512 N.ar      1 ACP        -0.8008
     29 C2         -2.9113    1.4216   -3.3172 C.ar      1 ACP         0.6565
     30 N3         -1.9824    1.6843   -2.3721 N.ar      1 ACP        -0.7061
     31 C4         -0.7613    1.3370   -2.8054 C.ar      1 ACP         0.5715
     32 HOG3        9.5550   -3.5754   -0.3314 H         1 ACP         0.4226
     33 HOB2        3.8317   -0.8368    1.0324 H         1 ACP         0.4482
     34 H3B1        5.9412   -1.5168   -1.9532 H         1 ACP         0.1012
     35 H3B2        5.8947   -3.1410   -1.2734 H         1 ACP         0.1012
     36 H5'1        4.4844    2.9853    0.0382 H         1 ACP         0.0481
     37 H5'2        4.3192    1.3445   -0.6390 H         1 ACP         0.0481
     38 H4'         2.3751    2.7029    1.3156 H         1 ACP         0.0904
     39 H3'         2.4336   -0.1217   -0.0015 H         1 ACP         0.0809
     40 HO3'        1.7160   -0.6716    2.0397 H         1 ACP         0.4528
     41 H2'         0.0316    0.0155   -0.0339 H         1 ACP         0.0594
     42 HO2'       -0.1608    0.7921    2.1351 H         1 ACP         0.4344
     43 H1'        -0.1474    2.7798   -0.6651 H         1 ACP         0.1127
     44 H8          2.4442    0.9470   -2.6763 H         1 ACP         0.1050
     45 HN61       -0.2955   -0.1901   -6.4713 H         1 ACP         0.4211
     46 HN62       -1.9987   -0.1045   -6.8334 H         1 ACP         0.4211
     47 H2         -3.9335    1.6716   -3.0534 H         1 ACP         0.0375
@<TRIPOS>BOND
     1    1    2 2
     2    1    3 1
     3    1    4 1
     4    1    8 1
     5    4   32 1
     6    5    6 2
     7    5    7 1
     8    5    8 1
     9    5   12 1
    10    7   33 1
    11    8   34 1
    12    8   35 1
    13    9   10 2
    14    9   11 1
    15    9   12 1
    16    9   13 1
    17   13   14 1
    18   14   15 1
    19   14   36 1
    20   14   37 1
    21   15   16 1
    22   15   17 1
    23   15   38 1
    24   16   21 1
    25   17   18 1
    26   17   19 1
    27   17   39 1
    28   18   40 1
    29   19   20 1
    30   19   21 1
    31   19   41 1
    32   20   42 1
    33   21   22 1
    34   21   43 1
    35   22   23 ar
    36   22   31 ar
    37   23   24 ar
    38   23   44 1
    39   24   25 ar
    40   25   26 ar
    41   25   31 ar
    42   26   27 1
    43   26   28 ar
    44   27   45 1
    45   27   46 1
    46   28   29 ar
    47   29   30 ar
    48   29   47 1
    49   30   31 ar
@<TRIPOS>SUBSTRUCTURE
     1 ACP         1 GROUP 0 A     ****
@<TRIPOS>MOLECULE
[[[5-(6-aminopurin-9-yl)-3,4-dihydroxy-tetrahydrofuran-2-yl]methoxy-oxido-phosphoryl]oxy-hydroxy-phosphoryl]methyl-hydroxy-phosphinate
   47    49     1     0     0
SMALL
USER_CHARGES

@<TRIPOS>ATOM
      1 PG         -0.9901    4.4450   -8.0216 P.3       1 ACP         1.3516
      2 O1G         0.3657    3.9972   -8.5161 O.co2     1 ACP        -0.8379
      3 O2G        -1.8241    5.4627   -8.7650 O.co2     1 ACP        -0.8379
      4 O3G        -1.9042    3.1363   -7.6873 O.3       1 ACP        -0.7980
      5 PB          0.3094    4.2694   -5.0832 P.3       1 ACP         1.7688
      6 O1B         0.3465    4.9321   -3.7387 O.2       1 ACP        -0.9167
      7 O2B         1.7360    4.1839   -5.8376 O.3       1 ACP        -0.8201
      8 C3B        -0.7684    5.0648   -6.2937 C.3       1 ACP        -0.6097
      9 PA         -1.6496    2.0939   -4.6531 P.3       1 ACP         1.5979
     10 O1A        -1.5270    0.5872   -4.7215 O.co2     1 ACP        -0.8617
     11 O2A        -2.7687    2.8121   -5.3753 O.co2     1 ACP        -0.8617
     12 O3A        -0.2222    2.7452   -5.1025 O.3       1 ACP        -0.8283
     13 O5'        -1.6519    2.5337   -3.0776 O.3       1 ACP        -0.5783
     14 C5'        -0.7794    1.8744   -2.1748 C.3       1 ACP         0.1980
     15 C4'        -0.9699    2.4597   -0.7819 C.3       1 ACP         0.0815
     16 O4'        -2.1475    1.8640   -0.2014 O.3       1 ACP        -0.4127
     17 C3'         0.1697    2.1347    0.1695 C.3       1 ACP         0.0890
     18 O3'         0.1809    3.0982    1.2223 O.3       1 ACP        -0.6221
     19 C2'        -0.2543    0.7880    0.7187 C.3       1 ACP         0.1067
     20 O2'         0.3606    0.4944    1.9582 O.3       1 ACP        -0.6053
     21 C1'        -1.7682    0.9516    0.8548 C.3       1 ACP         0.4223
     22 N9         -2.5926   -0.2553    0.7436 N.pl3     1 ACP        -0.6834
     23 C8         -3.5599   -0.4866   -0.1983 C.ar      1 ACP         0.5614
     24 N7         -4.1294   -1.6639   -0.0461 N.2       1 ACP        -0.5751
     25 C5         -3.5041   -2.2191    1.0420 C.ar      1 ACP        -0.2117
     26 C6         -3.6605   -3.4390    1.6925 C.ar      1 ACP         0.7177
     27 N6         -4.6108   -4.3735    1.2468 N.pl3     1 ACP        -0.9401
     28 N1         -2.8820   -3.7179    2.7657 N.ar      1 ACP        -0.8008
     29 C2         -1.9837   -2.7784    3.1481 C.ar      1 ACP         0.6565
     30 N3         -1.7408   -1.5668    2.6022 N.ar      1 ACP        -0.7061
     31 C4         -2.5438   -1.3578    1.5483 C.ar      1 ACP         0.5715
     32 HOG3       -2.0973    2.5033   -8.4113 H         1 ACP         0.4226
     33 HOB2        2.4726    3.6995   -5.4075 H         1 ACP         0.4482
     34 H3B1       -0.4493    6.1092   -6.3857 H         1 ACP         0.1012
     35 H3B2       -1.7764    5.0745   -5.8655 H         1 ACP         0.1012
     36 H5'1       -1.0116    0.8047   -2.1754 H         1 ACP         0.0481
     37 H5'2        0.2522    2.0163   -2.5120 H         1 ACP         0.0481
     38 H4'        -1.1469    3.5409   -0.8522 H         1 ACP         0.0904
     39 H3'         1.1601    2.1310   -0.2934 H         1 ACP         0.0809
     40 HO3'        0.3098    3.9616    0.8017 H         1 ACP         0.4528
     41 H2'        -0.0024   -0.0091    0.0062 H         1 ACP         0.0594
     42 HO2'        0.0972    1.1923    2.5835 H         1 ACP         0.4344
     43 H1'        -2.0584    1.4255    1.8301 H         1 ACP         0.1127
     44 H8         -3.8030    0.2355   -0.9657 H         1 ACP         0.1050
     45 HN61       -5.2130   -4.1372    0.4810 H         1 ACP         0.4211
     46 HN62       -4.7404   -5.2263    1.7576 H         1 ACP         0.4211
     47 H2         -1.3778   -3.0348    4.0107 H         1 ACP         0.0375
@<TRIPOS>BOND
     1    1    2 2
     2    1    3 1
     3    1    4 1
     4    1    8 1
     5    4   32 1
     6    5    6 2
     7    5    7 1
     8    5    8 1
     9    5   12 1
    10    7   33 1
    11    8   34 1
    12    8   35 1
    13    9   10 2
    14    9   11 1
    15    9   12 1
    16    9   13 1
    17   13   14 1
    18   14   15 1
    19   14   36 1
    20   14   37 1
    21   15   16 1
    22   15   17 1
    23   15   38 1
    24   16   21 1
    25   17   18 1
    26   17   19 1
    27   17   39 1
    28   18   40 1
    29   19   20 1
    30   19   21 1
    31   19   41 1
    32   20   42 1
    33   21   22 1
    34   21   43 1
    35   22   23 ar
    36   22   31 ar
    37   23   24 ar
    38   23   44 1
    39   24   25 ar
    40   25   26 ar
    41   25   31 ar
    42   26   27 1
    43   26   28 ar
    44   27   45 1
    45   27   46 1
    46   28   29 ar
    47   29   30 ar
    48   29   47 1
    49   30   31 ar
@<TRIPOS>SUBSTRUCTURE
     1 ACP         1 GROUP 0 A     ****
@<TRIPOS>MOLECULE
[[[5-(6-aminopurin-9-yl)-3,4-dihydroxy-tetrahydrofuran-2-yl]methoxy-oxido-phosphoryl]oxy-hydroxy-phosphoryl]methyl-hydroxy-phosphinate
   47    49     1     0     0
SMALL
USER_CHARGES

@<TRIPOS>ATOM
      1 PG          2.2067    1.4525   -2.4557 P.3       1 ACP         1.3516
      2 O1G         1.2973    1.4162   -3.6619 O.co2     1 ACP        -0.8379
      3 O2G         1.8078    0.8543   -1.1264 O.co2     1 ACP        -0.8379
      4 O3G         3.6844    0.9038   -2.8746 O.3       1 ACP        -0.7980
      5 PB          1.4361    4.5088   -1.8083 P.3       1 ACP         1.7688
      6 O1B         0.4138    4.7191   -2.8848 O.2       1 ACP        -0.9167
      7 O2B         2.3369    5.8058   -1.4648 O.3       1 ACP        -0.8201
      8 C3B         2.6534    3.2217   -2.1564 C.3       1 ACP        -0.6097
      9 PA         -0.1841    4.7791    0.6529 P.3       1 ACP         1.5979
     10 O1A        -1.5494    4.8014    0.0006 O.co2     1 ACP        -0.8617
     11 O2A         0.4426    6.0522    1.1782 O.co2     1 ACP        -0.8617
     12 O3A         0.8608    4.0543   -0.3700 O.3       1 ACP        -0.8283
     13 O5'        -0.2060    3.6558    1.8418 O.3       1 ACP        -0.5783
     14 C5'        -0.8811    2.4285    1.6206 C.3       1 ACP         0.1980
     15 C4'        -0.1994    1.3333    2.4288 C.3       1 ACP         0.0815
     16 O4'        -1.1285    0.2356    2.5840 O.3       1 ACP        -0.4127
     17 C3'         1.0324    0.7610    1.7344 C.3       1 ACP         0.0890
     18 O3'         1.9175    0.2377    2.7247 O.3       1 ACP        -0.6221
     19 C2'         0.4468   -0.3802    0.9263 C.3       1 ACP         0.1067
     20 O2'         1.3993   -1.3703    0.5961 O.3       1 ACP        -0.6053
     21 C1'        -0.6159   -0.9100    1.8769 C.3       1 ACP         0.4223
     22 N9         -1.7127   -1.6108    1.2130 N.pl3     1 ACP        -0.6834
     23 C8         -2.8641   -1.0399    0.7392 C.ar      1 ACP         0.5614
     24 N7         -3.6659   -1.9257    0.1858 N.2       1 ACP        -0.5751
     25 C5         -3.0053   -3.1223    0.3069 C.ar      1 ACP        -0.2117
     26 C6         -3.3321   -4.4178   -0.0813 C.ar      1 ACP         0.7177
     27 N6         -4.5476   -4.6866   -0.7335 N.pl3     1 ACP        -0.9401
     28 N1         -2.4608   -5.4225    0.1773 N.ar      1 ACP        -0.8008
     29 C2         -1.3053   -5.1020    0.8081 C.ar      1 ACP         0.6565
     30 N3         -0.8788   -3.8921    1.2315 N.ar      1 ACP        -0.7061
     31 C4         -1.7870   -2.9477    0.9438 C.ar      1 ACP         0.5715
     32 HOG3        3.7629   -0.0106   -3.2211 H         1 ACP         0.4226
     33 HOB2        1.8938    6.6218   -1.1489 H         1 ACP         0.4482
     34 H3B1        3.3747    3.2160   -1.3315 H         1 ACP         0.1012
     35 H3B2        3.1972    3.5316   -3.0552 H         1 ACP         0.1012
     36 H5'1       -1.9255    2.5382    1.9294 H         1 ACP         0.0481
     37 H5'2       -0.8473    2.1933    0.5521 H         1 ACP         0.0481
     38 H4'         0.0403    1.7078    3.4343 H         1 ACP         0.0904
     39 H3'         1.5906    1.4859    1.1353 H         1 ACP         0.0809
     40 HO3'        2.1521    0.9800    3.3017 H         1 ACP         0.4528
     41 H2'        -0.0017    0.0018    0.0005 H         1 ACP         0.0594
     42 HO2'        0.9369   -2.0558    0.0825 H         1 ACP         0.4344
     43 H1'        -0.1998   -1.6319    2.6178 H         1 ACP         0.1127
     44 H8         -3.0609    0.0200    0.8250 H         1 ACP         0.1050
     45 HN61       -5.2046   -3.9433   -0.8775 H         1 ACP         0.4211
     46 HN62       -4.7849   -5.6332   -0.9625 H         1 ACP         0.4211
     47 H2         -0.6318   -5.9307    0.9993 H         1 ACP         0.0375
@<TRIPOS>BOND
     1    1    2 2
     2    1    3 1
     3    1    4 1
     4    1    8 1
     5    4   32 1
     6    5    6 2
     7    5    7 1
     8    5    8 1
     9    5   12 1
    10    7   33 1
    11    8   34 1
    12    8   35 1
    13    9   10 2
    14    9   11 1
    15    9   12 1
    16    9   13 1
    17   13   14 1
    18   14   15 1
    19   14   36 1
    20   14   37 1
    21   15   16 1
    22   15   17 1
    23   15   38 1
    24   16   21 1
    25   17   18 1
    26   17   19 1
    27   17   39 1
    28   18   40 1
    29   19   20 1
    30   19   21 1
    31   19   41 1
    32   20   42 1
    33   21   22 1
    34   21   43 1
    35   22   23 ar
    36   22   31 ar
    37   23   24 ar
    38   23   44 1
    39   24   25 ar
    40   25   26 ar
    41   25   31 ar
    42   26   27 1
    43   26   28 ar
    44   27   45 1
    45   27   46 1
    46   28   29 ar
    47   29   30 ar
    48   29   47 1
    49   30   31 ar
@<TRIPOS>SUBSTRUCTURE
     1 ACP         1 GROUP 0 A     ****
@<TRIPOS>MOLECULE
[[[5-(6-aminopurin-9-yl)-3,4-dihydroxy-tetrahydrofuran-2-yl]methoxy-oxido-phosphoryl]oxy-hydroxy-phosphoryl]methyl-hydroxy-phosphinate
   47    49     1     0     0
SMALL
USER_CHARGES

@<TRIPOS>ATOM
      1 PG          2.2067    1.4525   -2.4557 P.3       1 ACP         1.3516
      2 O1G         1.2973    1.4162   -3.6619 O.co2     1 ACP        -0.8379
      3 O2G         1.8078    0.8543   -1.1264 O.co2     1 ACP        -0.8379
      4 O3G         3.6844    0.9038   -2.8746 O.3       1 ACP        -0.7980
      5 PB          1.4361    4.5088   -1.8083 P.3       1 ACP         1.7688
      6 O1B         0.4138    4.7191   -2.8848 O.2       1 ACP        -0.9167
      7 O2B         2.3369    5.8058   -1.4648 O.3       1 ACP        -0.8201
      8 C3B         2.6534    3.2217   -2.1564 C.3       1 ACP        -0.6097
      9 PA         -0.1841    4.7791    0.6529 P.3       1 ACP         1.5979
     10 O1A        -1.5494    4.8014    0.0006 O.co2     1 ACP        -0.8617
     11 O2A         0.4426    6.0522    1.1782 O.co2     1 ACP        -0.8617
     12 O3A         0.8608    4.0543   -0.3700 O.3       1 ACP        -0.8283
     13 O5'        -0.2060    3.6558    1.8418 O.3       1 ACP        -0.5783
     14 C5'        -0.8811    2.4285    1.6206 C.3       1 ACP         0.1980
     15 C4'        -0.1994    1.3333    2.4288 C.3       1 ACP         0.0815
     16 O4'        -1.1285    0.2356    2.5840 O.3       1 ACP        -0.4127
     17 C3'         1.0324    0.7610    1.7344 C.3       1 ACP         0.0890
     18 O3'         1.9175    0.2377    2.7247 O.3       1 ACP        -0.6221
     19 C2'         0.4468   -0.3802    0.9263 C.3       1 ACP         0.1067
     20 O2'         1.3993   -1.3703    0.5961 O.3       1 ACP        -0.6053
     21 C1'        -0.6159   -0.9100    1.8769 C.3       1 ACP         0.4223
     22 N9         -1.7127   -1.6108    1.2130 N.pl3     1 ACP        -0.6834
     23 C8         -2.0877   -2.9101    1.4304 C.ar      1 ACP         0.5614
     24 N7         -3.1152   -3.2613    0.6857 N.2       1 ACP        -0.5751
     25 C5         -3.4186   -2.1409   -0.0462 C.ar      1 ACP        -0.2117
     26 C6         -4.3953   -1.8809   -1.0023 C.ar      1 ACP         0.7177
     27 N6         -5.3118   -2.8767   -1.3812 N.pl3     1 ACP        -0.9401
     28 N1         -4.4538   -0.6507   -1.5667 N.ar      1 ACP        -0.8008
     29 C2         -3.5442    0.2679   -1.1609 C.ar      1 ACP         0.6565
     30 N3         -2.5561    0.1361   -0.2491 N.ar      1 ACP        -0.7061
     31 C4         -2.5568   -1.1019    0.2674 C.ar      1 ACP         0.5715
     32 HOG3        3.7629   -0.0106   -3.2211 H         1 ACP         0.4226
     33 HOB2        1.8938    6.6218   -1.1489 H         1 ACP         0.4482
     34 H3B1        3.3747    3.2160   -1.3315 H         1 ACP         0.1012
     35 H3B2        3.1972    3.5316   -3.0552 H         1 ACP         0.1012
     36 H5'1       -1.9255    2.5382    1.9294 H         1 ACP         0.0481
     37 H5'2       -0.8473    2.1933    0.5521 H         1 ACP         0.0481
     38 H4'         0.0403    1.7078    3.4343 H         1 ACP         0.0904
     39 H3'         1.5906    1.4859    1.1353 H         1 ACP         0.0809
     40 HO3'        2.1521    0.9800    3.3017 H         1 ACP         0.4528
     41 H2'        -0.0017    0.0018    0.0005 H         1 ACP         0.0594
     42 HO2'        0.9369   -2.0558    0.0825 H         1 ACP         0.4344
     43 H1'        -0.1998   -1.6319    2.6178 H         1 ACP         0.1127
     44 H8         -1.5778   -3.5473    2.1399 H         1 ACP         0.1050
     45 HN61       -5.2294   -3.7965   -0.9914 H         1 ACP         0.4211
     46 HN62       -5.9774   -2.6837   -2.1055 H         1 ACP         0.4211
     47 H2         -3.6201    1.2414   -1.6336 H         1 ACP         0.0375
@<TRIPOS>BOND
     1    1    2 2
     2    1    3 1
     3    1    4 1
     4    1    8 1
     5    4   32 1
     6    5    6 2
     7    5    7 1
     8    5    8 1
     9    5   12 1
    10    7   33 1
    11    8   34 1
    12    8   35 1
    13    9   10 2
    14    9   11 1
    15    9   12 1
    16    9   13 1
    17   13   14 1
    18   14   15 1
    19   14   36 1
    20   14   37 1
    21   15   16 1
    22   15   17 1
    23   15   38 1
    24   16   21 1
    25   17   18 1
    26   17   19 1
    27   17   39 1
    28   18   40 1
    29   19   20 1
    30   19   21 1
    31   19   41 1
    32   20   42 1
    33   21   22 1
    34   21   43 1
    35   22   23 ar
    36   22   31 ar
    37   23   24 ar
    38   23   44 1
    39   24   25 ar
    40   25   26 ar
    41   25   31 ar
    42   26   27 1
    43   26   28 ar
    44   27   45 1
    45   27   46 1
    46   28   29 ar
    47   29   30 ar
    48   29   47 1
    49   30   31 ar
@<TRIPOS>SUBSTRUCTURE
     1 ACP         1 GROUP 0 A     ****
@<TRIPOS>MOLECULE
[[[5-(6-aminopurin-9-yl)-3,4-dihydroxy-tetrahydrofuran-2-yl]methoxy-oxido-phosphoryl]oxy-hydroxy-phosphoryl]methyl-hydroxy-phosphinate
   47    49     1     0     0
SMALL
USER_CHARGES

@<TRIPOS>ATOM
      1 PG          7.1348   -0.1686   -2.4782 P.3       1 ACP         1.3516
      2 O1G         7.2909   -0.5837   -3.9227 O.co2     1 ACP        -0.8379
      3 O2G         5.7940    0.1963   -1.8841 O.co2     1 ACP        -0.8379
      4 O3G         7.8733   -1.2605   -1.5178 O.3       1 ACP        -0.7980
      5 PB          8.4369    2.0949   -0.5978 P.3       1 ACP         1.7688
      6 O1B         9.4189    3.2277   -0.5767 O.2       1 ACP        -0.9167
      7 O2B         8.7612    0.8958    0.4360 O.3       1 ACP        -0.8201
      8 C3B         8.2764    1.2570   -2.1890 C.3       1 ACP        -0.6097
      9 PA          5.8656    3.5048   -0.9931 P.3       1 ACP         1.5979
     10 O1A         5.5292    2.9433   -2.3574 O.co2     1 ACP        -0.8617
     11 O2A         6.3777    4.9209   -0.8447 O.co2     1 ACP        -0.8617
     12 O3A         6.9066    2.4832   -0.2608 O.3       1 ACP        -0.8283
     13 O5'         4.5669    3.2940   -0.0211 O.3       1 ACP        -0.5783
     14 C5'         4.0922    1.9801    0.2227 C.3       1 ACP         0.1980
     15 C4'         2.5944    2.0310    0.4653 C.3       1 ACP         0.0815
     16 O4'         1.9327    2.5740   -0.6889 O.3       1 ACP        -0.4127
     17 C3'         1.9685    0.6634    0.6767 C.3       1 ACP         0.0890
     18 O3'         2.1425    0.1975    1.9977 O.3       1 ACP        -0.6221
     19 C2'         0.5176    0.9128    0.3099 C.3       1 ACP         0.1067
     20 O2'        -0.2103    1.4454    1.4152 O.3       1 ACP        -0.6053
     21 C1'         0.6219    1.9765   -0.7844 C.3       1 ACP         0.4223
     22 N9          0.4237    1.4496   -2.1357 N.pl3     1 ACP        -0.6834
     23 C8         -0.7736    1.3475   -2.7932 C.ar      1 ACP         0.5614
     24 N7         -0.6356    0.8373   -3.9991 N.2       1 ACP        -0.5751
     25 C5          0.7095    0.5981   -4.1281 C.ar      1 ACP        -0.2117
     26 C6          1.4733    0.0704   -5.1643 C.ar      1 ACP         0.7177
     27 N6          0.8693   -0.3355   -6.3666 N.pl3     1 ACP        -0.9401
     28 N1          2.8130   -0.0482   -5.0009 N.ar      1 ACP        -0.8008
     29 C2          3.3380    0.3602   -3.8204 C.ar      1 ACP         0.6565
     30 N3          2.7052    0.8841   -2.7480 N.ar      1 ACP        -0.7061
     31 C4          1.3867    0.9726   -2.9785 C.ar      1 ACP         0.5715
     32 HOG3        7.5663   -2.1918   -1.5462 H         1 ACP         0.4226
     33 HOB2        8.8018    1.0940    1.3957 H         1 ACP         0.4482
     34 H3B1        9.2736    0.9103   -2.4830 H         1 ACP         0.1012
     35 H3B2        7.9727    2.0147   -2.9193 H         1 ACP         0.1012
     36 H5'1        4.3180    1.3550   -0.6470 H         1 ACP         0.0481
     37 H5'2        4.6085    1.5739    1.0983 H         1 ACP         0.0481
     38 H4'         2.3751    2.7029    1.3156 H         1 ACP         0.0904
     39 H3'         2.4336   -0.1217   -0.0015 H         1 ACP         0.0809
     40 HO3'        1.7160   -0.6716    2.0397 H         1 ACP         0.4528
     41 H2'         0.0316    0.0155   -0.0339 H         1 ACP         0.0594
     42 HO2'       -0.1608    0.7921    2.1351 H         1 ACP         0.4344
     43 H1'        -0.1474    2.7798   -0.6651 H         1 ACP         0.1127
     44 H8         -1.7070    1.6599   -2.3451 H         1 ACP         0.1050
     45 HN61       -0.1277   -0.2866   -6.4583 H         1 ACP         0.4211
     46 HN62        1.4308   -0.7566   -7.0823 H         1 ACP         0.4211
     47 H2          4.4130    0.2505   -3.7241 H         1 ACP         0.0375
@<TRIPOS>BOND
     1    1    2 2
     2    1    3 1
     3    1    4 1
     4    1    8 1
     5    4   32 1
     6    5    6 2
     7    5    7 1
     8    5    8 1
     9    5   12 1
    10    7   33 1
    11    8   34 1
    12    8   35 1
    13    9   10 2
    14    9   11 1
    15    9   12 1
    16    9   13 1
    17   13   14 1
    18   14   15 1
    19   14   36 1
    20   14   37 1
    21   15   16 1
    22   15   17 1
    23   15   38 1
    24   16   21 1
    25   17   18 1
    26   17   19 1
    27   17   39 1
    28   18   40 1
    29   19   20 1
    30   19   21 1
    31   19   41 1
    32   20   42 1
    33   21   22 1
    34   21   43 1
    35   22   23 ar
    36   22   31 ar
    37   23   24 ar
    38   23   44 1
    39   24   25 ar
    40   25   26 ar
    41   25   31 ar
    42   26   27 1
    43   26   28 ar
    44   27   45 1
    45   27   46 1
    46   28   29 ar
    47   29   30 ar
    48   29   47 1
    49   30   31 ar
@<TRIPOS>SUBSTRUCTURE
     1 ACP         1 GROUP 0 A     ****
@<TRIPOS>MOLECULE
[[[5-(6-aminopurin-9-yl)-3,4-dihydroxy-tetrahydrofuran-2-yl]methoxy-oxido-phosphoryl]oxy-hydroxy-phosphoryl]methyl-hydroxy-phosphinate
   47    49     1     0     0
SMALL
USER_CHARGES

@<TRIPOS>ATOM
      1 PG          2.0191    7.8322    3.0358 P.3       1 ACP         1.3516
      2 O1G         1.5261    8.7022    4.1686 O.co2     1 ACP        -0.8379
      3 O2G         1.4698    7.9470    1.6326 O.co2     1 ACP        -0.8379
      4 O3G         3.6486    7.8809    2.9849 O.3       1 ACP        -0.7980
      5 PB          0.2295    5.3390    4.0029 P.3       1 ACP         1.7688
      6 O1B        -0.4754    5.9964    5.1515 O.2       1 ACP        -0.9167
      7 O2B         0.5751    3.7758    4.2233 O.3       1 ACP        -0.8201
      8 C3B         1.8208    6.0723    3.5671 C.3       1 ACP        -0.6097
      9 PA         -2.0038    4.7531    2.1525 P.3       1 ACP         1.5979
     10 O1A        -2.1508    4.9097    0.6546 O.co2     1 ACP        -0.8617
     11 O2A        -3.0647    5.2822    3.0929 O.co2     1 ACP        -0.8617
     12 O3A        -0.5536    5.3594    2.5914 O.3       1 ACP        -0.8283
     13 O5'        -1.7337    3.1724    2.4753 O.3       1 ACP        -0.5783
     14 C5'        -0.8811    2.4285    1.6206 C.3       1 ACP         0.1980
     15 C4'        -0.1994    1.3333    2.4288 C.3       1 ACP         0.0815
     16 O4'        -1.1285    0.2356    2.5840 O.3       1 ACP        -0.4127
     17 C3'         1.0324    0.7610    1.7344 C.3       1 ACP         0.0890
     18 O3'         1.9175    0.2377    2.7247 O.3       1 ACP        -0.6221
     19 C2'         0.4468   -0.3802    0.9263 C.3       1 ACP         0.1067
     20 O2'         1.3993   -1.3703    0.5961 O.3       1 ACP        -0.6053
     21 C1'        -0.6159   -0.9100    1.8769 C.3       1 ACP         0.4223
     22 N9         -1.7127   -1.6108    1.2130 N.pl3     1 ACP        -0.6834
     23 C8         -2.0877   -2.9101    1.4304 C.ar      1 ACP         0.5614
     24 N7         -3.1152   -3.2613    0.6857 N.2       1 ACP        -0.5751
     25 C5         -3.4186   -2.1409   -0.0462 C.ar      1 ACP        -0.2117
     26 C6         -4.3953   -1.8809   -1.0023 C.ar      1 ACP         0.7177
     27 N6         -5.3118   -2.8767   -1.3812 N.pl3     1 ACP        -0.9401
     28 N1         -4.4538   -0.6507   -1.5667 N.ar      1 ACP        -0.8008
     29 C2         -3.5442    0.2679   -1.1609 C.ar      1 ACP         0.6565
     30 N3         -2.5561    0.1361   -0.2491 N.ar      1 ACP        -0.7061
     31 C4         -2.5568   -1.1019    0.2674 C.ar      1 ACP         0.5715
     32 HOG3        4.0865    8.7475    2.8451 H         1 ACP         0.4226
     33 HOB2       -0.1590    3.1448    4.3818 H         1 ACP         0.4482
     34 H3B1        2.2580    5.4639    2.7673 H         1 ACP         0.1012
     35 H3B2        2.4712    5.9663    4.4420 H         1 ACP         0.1012
     36 H5'1       -1.4802    1.9928    0.8147 H         1 ACP         0.0481
     37 H5'2       -0.1369    3.1042    1.1873 H         1 ACP         0.0481
     38 H4'         0.0403    1.7078    3.4343 H         1 ACP         0.0904
     39 H3'         1.5906    1.4859    1.1353 H         1 ACP         0.0809
     40 HO3'        2.6839   -0.1150    2.2479 H         1 ACP         0.4528
     41 H2'        -0.0017    0.0018    0.0005 H         1 ACP         0.0594
     42 HO2'        2.0953   -0.9375    0.0709 H         1 ACP         0.4344
     43 H1'        -0.1998   -1.6319    2.6178 H         1 ACP         0.1127
     44 H8         -1.5778   -3.5473    2.1399 H         1 ACP         0.1050
     45 HN61       -5.2294   -3.7965   -0.9914 H         1 ACP         0.4211
     46 HN62       -5.9774   -2.6837   -2.1055 H         1 ACP         0.4211
     47 H2         -3.6201    1.2414   -1.6336 H         1 ACP         0.0375
@<TRIPOS>BOND
     1    1    2 2
     2    1    3 1
     3    1    4 1
     4    1    8 1
     5    4   32 1
     6    5    6 2
     7    5    7 1
     8    5    8 1
     9    5   12 1
    10    7   33 1
    11    8   34 1
    12    8   35 1
    13    9   10 2
    14    9   11 1
    15    9   12 1
    16    9   13 1
    17   13   14 1
    18   14   15 1
    19   14   36 1
    20   14   37 1
    21   15   16 1
    22   15   17 1
    23   15   38 1
    24   16   21 1
    25   17   18 1
    26   17   19 1
    27   17   39 1
    28   18   40 1
    29   19   20 1
    30   19   21 1
    31   19   41 1
    32   20   42 1
    33   21   22 1
    34   21   43 1
    35   22   23 ar
    36   22   31 ar
    37   23   24 ar
    38   23   44 1
    39   24   25 ar
    40   25   26 ar
    41   25   31 ar
    42   26   27 1
    43   26   28 ar
    44   27   45 1
    45   27   46 1
    46   28   29 ar
    47   29   30 ar
    48   29   47 1
    49   30   31 ar
@<TRIPOS>SUBSTRUCTURE
     1 ACP         1 GROUP 0 A     ****
@<TRIPOS>MOLECULE
[[[5-(6-aminopurin-9-yl)-3,4-dihydroxy-tetrahydrofuran-2-yl]methoxy-oxido-phosphoryl]oxy-hydroxy-phosphoryl]methyl-hydroxy-phosphinate
   47    49     1     0     0
SMALL
USER_CHARGES

@<TRIPOS>ATOM
      1 PG          4.0167    2.7685   -0.9924 P.3       1 ACP         1.3516
      2 O1G         4.8587    4.0056   -0.7827 O.co2     1 ACP        -0.8379
      3 O2G         4.6072    1.4627   -1.4719 O.co2     1 ACP        -0.8379
      4 O3G         3.1115    2.4975    0.3369 O.3       1 ACP        -0.7980
      5 PB          1.4361    4.5088   -1.8083 P.3       1 ACP         1.7688
      6 O1B         0.4138    4.7191   -2.8848 O.2       1 ACP        -0.9167
      7 O2B         2.3369    5.8058   -1.4648 O.3       1 ACP        -0.8201
      8 C3B         2.6534    3.2217   -2.1564 C.3       1 ACP        -0.6097
      9 PA         -0.1841    4.7791    0.6529 P.3       1 ACP         1.5979
     10 O1A        -1.5494    4.8014    0.0006 O.co2     1 ACP        -0.8617
     11 O2A         0.4426    6.0522    1.1782 O.co2     1 ACP        -0.8617
     12 O3A         0.8608    4.0543   -0.3700 O.3       1 ACP        -0.8283
     13 O5'        -0.2060    3.6558    1.8418 O.3       1 ACP        -0.5783
     14 C5'        -0.8811    2.4285    1.6206 C.3       1 ACP         0.1980
     15 C4'        -0.1994    1.3333    2.4288 C.3       1 ACP         0.0815
     16 O4'        -1.1285    0.2356    2.5840 O.3       1 ACP        -0.4127
     17 C3'         1.0324    0.7610    1.7344 C.3       1 ACP         0.0890
     18 O3'         1.9175    0.2377    2.7247 O.3       1 ACP        -0.6221
     19 C2'         0.4468   -0.3802    0.9263 C.3       1 ACP         0.1067
     20 O2'         1.3993   -1.3703    0.5961 O.3       1 ACP        -0.6053
     21 C1'        -0.6159   -0.9100    1.8769 C.3       1 ACP         0.4223
     22 N9         -1.7127   -1.6108    1.2130 N.pl3     1 ACP        -0.6834
     23 C8         -1.7712   -2.9546    0.9544 C.ar      1 ACP         0.5614
     24 N7         -2.8883   -3.2948    0.3462 N.2       1 ACP        -0.5751
     25 C5         -3.5834   -2.1202    0.2043 C.ar      1 ACP        -0.2117
     26 C6         -4.8225   -1.8251   -0.3554 C.ar      1 ACP         0.7177
     27 N6         -5.6154   -2.8395   -0.9189 N.pl3     1 ACP        -0.9401
     28 N1         -5.2589   -0.5425   -0.3507 N.ar      1 ACP        -0.8008
     29 C2         -4.4510    0.3913    0.2069 C.ar      1 ACP         0.6565
     30 N3         -3.2368    0.2296    0.7767 N.ar      1 ACP        -0.7061
     31 C4         -2.8684   -1.0596    0.7376 C.ar      1 ACP         0.5715
     32 HOG3        3.5689    2.3483    1.1918 H         1 ACP         0.4226
     33 HOB2        1.8938    6.6218   -1.1489 H         1 ACP         0.4482
     34 H3B1        3.1380    3.4723   -3.1068 H         1 ACP         0.1012
     35 H3B2        2.0974    2.2916   -2.3160 H         1 ACP         0.1012
     36 H5'1       -1.9255    2.5382    1.9294 H         1 ACP         0.0481
     37 H5'2       -0.8473    2.1933    0.5521 H         1 ACP         0.0481
     38 H4'         0.0403    1.7078    3.4343 H         1 ACP         0.0904
     39 H3'         1.5906    1.4859    1.1353 H         1 ACP         0.0809
     40 HO3'        2.6839   -0.1150    2.2479 H         1 ACP         0.4528
     41 H2'        -0.0017    0.0018    0.0005 H         1 ACP         0.0594
     42 HO2'        2.0953   -0.9375    0.0709 H         1 ACP         0.4344
     43 H1'        -0.1998   -1.6319    2.6178 H         1 ACP         0.1127
     44 H8         -0.9745   -3.6312    1.2318 H         1 ACP         0.1050
     45 HN61       -5.2619   -3.7766   -0.9586 H         1 ACP         0.4211
     46 HN62       -6.4834   -2.5990   -1.3590 H         1 ACP         0.4211
     47 H2         -4.8317    1.4071    0.1930 H         1 ACP         0.0375
@<TRIPOS>BOND
     1    1    2 2
     2    1    3 1
     3    1    4 1
     4    1    8 1
     5    4   32 1
     6    5    6 2
     7    5    7 1
     8    5    8 1
     9    5   12 1
    10    7   33 1
    11    8   34 1
    12    8   35 1
    13    9   10 2
    14    9   11 1
    15    9   12 1
    16    9   13 1
    17   13   14 1
    18   14   15 1
    19   14   36 1
    20   14   37 1
    21   15   16 1
    22   15   17 1
    23   15   38 1
    24   16   21 1
    25   17   18 1
    26   17   19 1
    27   17   39 1
    28   18   40 1
    29   19   20 1
    30   19   21 1
    31   19   41 1
    32   20   42 1
    33   21   22 1
    34   21   43 1
    35   22   23 ar
    36   22   31 ar
    37   23   24 ar
    38   23   44 1
    39   24   25 ar
    40   25   26 ar
    41   25   31 ar
    42   26   27 1
    43   26   28 ar
    44   27   45 1
    45   27   46 1
    46   28   29 ar
    47   29   30 ar
    48   29   47 1
    49   30   31 ar
@<TRIPOS>SUBSTRUCTURE
     1 ACP         1 GROUP 0 A     ****
@<TRIPOS>MOLECULE
[[[5-(6-aminopurin-9-yl)-3,4-dihydroxy-tetrahydrofuran-2-yl]methoxy-oxido-phosphoryl]oxy-hydroxy-phosphoryl]methyl-hydroxy-phosphinate
   47    49     1     0     0
SMALL
USER_CHARGES

@<TRIPOS>ATOM
      1 PG         -5.4353    3.4392   -1.4453 P.3       1 ACP         1.3516
      2 O1G        -5.0048    2.4246   -0.4116 O.co2     1 ACP        -0.8379
      3 O2G        -5.8476    3.0409   -2.8436 O.co2     1 ACP        -0.8379
      4 O3G        -6.5716    4.4175   -0.8038 O.3       1 ACP        -0.7980
      5 PB         -3.4912    5.6947   -0.2258 P.3       1 ACP         1.7688
      6 O1B        -4.5310    6.5865    0.3838 O.2       1 ACP        -0.9167
      7 O2B        -2.2077    6.4656   -0.8342 O.3       1 ACP        -0.8201
      8 C3B        -4.0720    4.6787   -1.6007 C.3       1 ACP        -0.6097
      9 PA         -2.0038    4.7531    2.1525 P.3       1 ACP         1.5979
     10 O1A        -2.9393    5.2969    3.2104 O.co2     1 ACP        -0.8617
     11 O2A        -0.6860    5.4370    1.8604 O.co2     1 ACP        -0.8617
     12 O3A        -2.8410    4.5946    0.7605 O.3       1 ACP        -0.8283
     13 O5'        -1.7337    3.1724    2.4753 O.3       1 ACP        -0.5783
     14 C5'        -0.8811    2.4285    1.6206 C.3       1 ACP         0.1980
     15 C4'        -0.1994    1.3333    2.4288 C.3       1 ACP         0.0815
     16 O4'        -1.1285    0.2356    2.5840 O.3       1 ACP        -0.4127
     17 C3'         1.0324    0.7610    1.7344 C.3       1 ACP         0.0890
     18 O3'         1.9175    0.2377    2.7247 O.3       1 ACP        -0.6221
     19 C2'         0.4468   -0.3802    0.9263 C.3       1 ACP         0.1067
     20 O2'         1.3993   -1.3703    0.5961 O.3       1 ACP        -0.6053
     21 C1'        -0.6159   -0.9100    1.8769 C.3       1 ACP         0.4223
     22 N9         -1.7127   -1.6108    1.2130 N.pl3     1 ACP        -0.6834
     23 C8         -2.0877   -2.9101    1.4304 C.ar      1 ACP         0.5614
     24 N7         -3.1152   -3.2613    0.6857 N.2       1 ACP        -0.5751
     25 C5         -3.4186   -2.1409   -0.0462 C.ar      1 ACP        -0.2117
     26 C6         -4.3953   -1.8809   -1.0023 C.ar      1 ACP         0.7177
     27 N6         -5.3118   -2.8767   -1.3812 N.pl3     1 ACP        -0.9401
     28 N1         -4.4538   -0.6507   -1.5667 N.ar      1 ACP        -0.8008
     29 C2         -3.5442    0.2679   -1.1609 C.ar      1 ACP         0.6565
     30 N3         -2.5561    0.1361   -0.2491 N.ar      1 ACP        -0.7061
     31 C4         -2.5568   -1.1019    0.2674 C.ar      1 ACP         0.5715
     32 HOG3       -7.4071    4.0162   -0.4825 H         1 ACP         0.4226
     33 HOB2       -1.6584    7.0175   -0.2377 H         1 ACP         0.4482
     34 H3B1       -3.2089    4.1310   -1.9957 H         1 ACP         0.1012
     35 H3B2       -4.4028    5.3654   -2.3872 H         1 ACP         0.1012
     36 H5'1       -1.4802    1.9928    0.8147 H         1 ACP         0.0481
     37 H5'2       -0.1369    3.1042    1.1873 H         1 ACP         0.0481
     38 H4'         0.0403    1.7078    3.4343 H         1 ACP         0.0904
     39 H3'         1.5906    1.4859    1.1353 H         1 ACP         0.0809
     40 HO3'        2.6839   -0.1150    2.2479 H         1 ACP         0.4528
     41 H2'        -0.0017    0.0018    0.0005 H         1 ACP         0.0594
     42 HO2'        2.0953   -0.9375    0.0709 H         1 ACP         0.4344
     43 H1'        -0.1998   -1.6319    2.6178 H         1 ACP         0.1127
     44 H8         -1.5778   -3.5473    2.1399 H         1 ACP         0.1050
     45 HN61       -5.2294   -3.7965   -0.9914 H         1 ACP         0.4211
     46 HN62       -5.9774   -2.6837   -2.1055 H         1 ACP         0.4211
     47 H2         -3.6201    1.2414   -1.6336 H         1 ACP         0.0375
@<TRIPOS>BOND
     1    1    2 2
     2    1    3 1
     3    1    4 1
     4    1    8 1
     5    4   32 1
     6    5    6 2
     7    5    7 1
     8    5    8 1
     9    5   12 1
    10    7   33 1
    11    8   34 1
    12    8   35 1
    13    9   10 2
    14    9   11 1
    15    9   12 1
    16    9   13 1
    17   13   14 1
    18   14   15 1
    19   14   36 1
    20   14   37 1
    21   15   16 1
    22   15   17 1
    23   15   38 1
    24   16   21 1
    25   17   18 1
    26   17   19 1
    27   17   39 1
    28   18   40 1
    29   19   20 1
    30   19   21 1
    31   19   41 1
    32   20   42 1
    33   21   22 1
    34   21   43 1
    35   22   23 ar
    36   22   31 ar
    37   23   24 ar
    38   23   44 1
    39   24   25 ar
    40   25   26 ar
    41   25   31 ar
    42   26   27 1
    43   26   28 ar
    44   27   45 1
    45   27   46 1
    46   28   29 ar
    47   29   30 ar
    48   29   47 1
    49   30   31 ar
@<TRIPOS>SUBSTRUCTURE
     1 ACP         1 GROUP 0 A     ****
@<TRIPOS>MOLECULE
[[[5-(6-aminopurin-9-yl)-3,4-dihydroxy-tetrahydrofuran-2-yl]methoxy-oxido-phosphoryl]oxy-hydroxy-phosphoryl]methyl-hydroxy-phosphinate
   47    49     1     0     0
SMALL
USER_CHARGES

@<TRIPOS>ATOM
      1 PG          4.9627    0.4818    4.7651 P.3       1 ACP         1.3516
      2 O1G         3.5168    0.3156    4.3585 O.co2     1 ACP        -0.8379
      3 O2G         5.5543   -0.2396    5.9539 O.co2     1 ACP        -0.8379
      4 O3G         5.9204    0.2575    3.4641 O.3       1 ACP        -0.7980
      5 PB          5.0445    3.5179    3.7024 P.3       1 ACP         1.7688
      6 O1B         5.3395    4.9308    4.1085 O.2       1 ACP        -0.9167
      7 O2B         3.5361    3.2619    3.1820 O.3       1 ACP        -0.8201
      8 C3B         5.2614    2.2903    5.0084 C.3       1 ACP        -0.6097
      9 PA          6.1806    3.4027    0.9727 P.3       1 ACP         1.5979
     10 O1A         7.0172    2.3605    0.2629 O.co2     1 ACP        -0.8617
     11 O2A         6.5901    4.8594    0.9646 O.co2     1 ACP        -0.8617
     12 O3A         5.9620    2.9200    2.5163 O.3       1 ACP        -0.8283
     13 O5'         4.6405    3.2701    0.4379 O.3       1 ACP        -0.5783
     14 C5'         4.0922    1.9801    0.2227 C.3       1 ACP         0.1980
     15 C4'         2.5944    2.0310    0.4653 C.3       1 ACP         0.0815
     16 O4'         1.9327    2.5740   -0.6889 O.3       1 ACP        -0.4127
     17 C3'         1.9685    0.6634    0.6767 C.3       1 ACP         0.0890
     18 O3'         2.1425    0.1975    1.9977 O.3       1 ACP        -0.6221
     19 C2'         0.5176    0.9128    0.3099 C.3       1 ACP         0.1067
     20 O2'        -0.2103    1.4454    1.4152 O.3       1 ACP        -0.6053
     21 C1'         0.6219    1.9765   -0.7844 C.3       1 ACP         0.4223
     22 N9          0.4237    1.4496   -2.1357 N.pl3     1 ACP        -0.6834
     23 C8          1.4026    0.9717   -2.9660 C.ar      1 ACP         0.5614
     24 N7          0.9183    0.5619   -4.1197 N.2       1 ACP        -0.5751
     25 C5         -0.4330    0.7845   -4.0331 C.ar      1 ACP        -0.2117
     26 C6         -1.4794    0.5615   -4.9225 C.ar      1 ACP         0.7177
     27 N6         -1.2378    0.0044   -6.1899 N.pl3     1 ACP        -0.9401
     28 N1         -2.7406    0.8885   -4.5512 N.ar      1 ACP        -0.8008
     29 C2         -2.9113    1.4216   -3.3172 C.ar      1 ACP         0.6565
     30 N3         -1.9824    1.6843   -2.3721 N.ar      1 ACP        -0.7061
     31 C4         -0.7613    1.3370   -2.8054 C.ar      1 ACP         0.5715
     32 HOG3        5.8871   -0.6073    3.0022 H         1 ACP         0.4226
     33 HOB2        3.2137    3.7559    2.3984 H         1 ACP         0.4482
     34 H3B1        4.6306    2.5899    5.8529 H         1 ACP         0.1012
     35 H3B2        6.3014    2.3621    5.3442 H         1 ACP         0.1012
     36 H5'1        4.3030    1.6731   -0.8066 H         1 ACP         0.0481
     37 H5'2        4.5679    1.2740    0.9106 H         1 ACP         0.0481
     38 H4'         2.3751    2.7029    1.3156 H         1 ACP         0.0904
     39 H3'         2.4336   -0.1217   -0.0015 H         1 ACP         0.0809
     40 HO3'        3.0987    0.1465    2.1461 H         1 ACP         0.4528
     41 H2'         0.0316    0.0155   -0.0339 H         1 ACP         0.0594
     42 HO2'       -0.1608    0.7921    2.1351 H         1 ACP         0.4344
     43 H1'        -0.1474    2.7798   -0.6651 H         1 ACP         0.1127
     44 H8          2.4442    0.9470   -2.6763 H         1 ACP         0.1050
     45 HN61       -0.2955   -0.1901   -6.4713 H         1 ACP         0.4211
     46 HN62       -1.9987   -0.1045   -6.8334 H         1 ACP         0.4211
     47 H2         -3.9335    1.6716   -3.0534 H         1 ACP         0.0375
@<TRIPOS>BOND
     1    1    2 2
     2    1    3 1
     3    1    4 1
     4    1    8 1
     5    4   32 1
     6    5    6 2
     7    5    7 1
     8    5    8 1
     9    5   12 1
    10    7   33 1
    11    8   34 1
    12    8   35 1
    13    9   10 2
    14    9   11 1
    15    9   12 1
    16    9   13 1
    17   13   14 1
    18   14   15 1
    19   14   36 1
    20   14   37 1
    21   15   16 1
    22   15   17 1
    23   15   38 1
    24   16   21 1
    25   17   18 1
    26   17   19 1
    27   17   39 1
    28   18   40 1
    29   19   20 1
    30   19   21 1
    31   19   41 1
    32   20   42 1
    33   21   22 1
    34   21   43 1
    35   22   23 ar
    36   22   31 ar
    37   23   24 ar
    38   23   44 1
    39   24   25 ar
    40   25   26 ar
    41   25   31 ar
    42   26   27 1
    43   26   28 ar
    44   27   45 1
    45   27   46 1
    46   28   29 ar
    47   29   30 ar
    48   29   47 1
    49   30   31 ar
@<TRIPOS>SUBSTRUCTURE
     1 ACP         1 GROUP 0 A     ****
@<TRIPOS>MOLECULE
[[[5-(6-aminopurin-9-yl)-3,4-dihydroxy-tetrahydrofuran-2-yl]methoxy-oxido-phosphoryl]oxy-hydroxy-phosphoryl]methyl-hydroxy-phosphinate
   47    49     1     0     0
SMALL
USER_CHARGES

@<TRIPOS>ATOM
      1 PG         -2.2487    2.4497   -2.8243 P.3       1 ACP         1.3516
      2 O1G        -1.6219    1.0754   -2.8649 O.co2     1 ACP        -0.8379
      3 O2G        -3.4492    2.8139   -3.6668 O.co2     1 ACP        -0.8379
      4 O3G        -2.5270    2.8727   -1.2739 O.3       1 ACP        -0.7980
      5 PB          0.7688    3.5363   -2.5632 P.3       1 ACP         1.7688
      6 O1B         1.6965    4.6351   -2.9878 O.2       1 ACP        -0.9167
      7 O2B         1.2266    2.0515   -3.0076 O.3       1 ACP        -0.8201
      8 C3B        -0.9150    3.6741   -3.2001 C.3       1 ACP        -0.6097
      9 PA         -0.0886    4.4447    0.1191 P.3       1 ACP         1.5979
     10 O1A        -1.5542    4.6559   -0.1924 O.co2     1 ACP        -0.8617
     11 O2A         0.8512    5.6231    0.2521 O.co2     1 ACP        -0.8617
     12 O3A         0.5222    3.3979   -0.9739 O.3       1 ACP        -0.8283
     13 O5'         0.0181    3.5132    1.4596 O.3       1 ACP        -0.5783
     14 C5'        -0.8811    2.4285    1.6206 C.3       1 ACP         0.1980
     15 C4'        -0.1994    1.3333    2.4288 C.3       1 ACP         0.0815
     16 O4'        -1.1285    0.2356    2.5840 O.3       1 ACP        -0.4127
     17 C3'         1.0324    0.7610    1.7344 C.3       1 ACP         0.0890
     18 O3'         1.9175    0.2377    2.7247 O.3       1 ACP        -0.6221
     19 C2'         0.4468   -0.3802    0.9263 C.3       1 ACP         0.1067
     20 O2'         1.3993   -1.3703    0.5961 O.3       1 ACP        -0.6053
     21 C1'        -0.6159   -0.9100    1.8769 C.3       1 ACP         0.4223
     22 N9         -1.7127   -1.6108    1.2130 N.pl3     1 ACP        -0.6834
     23 C8         -2.5476   -1.0844    0.2632 C.ar      1 ACP         0.5614
     24 N7         -3.4391   -1.9591   -0.1536 N.2       1 ACP        -0.5751
     25 C5         -3.1701   -3.1016    0.5574 C.ar      1 ACP        -0.2117
     26 C6         -3.7593   -4.3620    0.5656 C.ar      1 ACP         0.7177
     27 N6         -4.8512   -4.6493   -0.2712 N.pl3     1 ACP        -0.9401
     28 N1         -3.2659   -5.3144    1.3932 N.ar      1 ACP        -0.8008
     29 C2         -2.2122   -4.9785    2.1759 C.ar      1 ACP         0.6565
     30 N3         -1.5595   -3.7985    2.2572 N.ar      1 ACP        -0.7061
     31 C4         -2.0986   -2.9054    1.4140 C.ar      1 ACP         0.5715
     32 HOG3       -3.1221    2.3091   -0.7349 H         1 ACP         0.4226
     33 HOB2        2.0881    1.7055   -2.6912 H         1 ACP         0.4482
     34 H3B1       -0.8525    3.7272   -4.2930 H         1 ACP         0.1012
     35 H3B2       -1.3090    4.6359   -2.8548 H         1 ACP         0.1012
     36 H5'1       -1.7769    2.7851    2.1387 H         1 ACP         0.0481
     37 H5'2       -1.1653    2.0543    0.6320 H         1 ACP         0.0481
     38 H4'         0.0403    1.7078    3.4343 H         1 ACP         0.0904
     39 H3'         1.5906    1.4859    1.1353 H         1 ACP         0.0809
     40 HO3'        2.1521    0.9800    3.3017 H         1 ACP         0.4528
     41 H2'        -0.0017    0.0018    0.0005 H         1 ACP         0.0594
     42 HO2'        2.0953   -0.9375    0.0709 H         1 ACP         0.4344
     43 H1'        -0.1998   -1.6319    2.6178 H         1 ACP         0.1127
     44 H8         -2.4576   -0.0639   -0.0831 H         1 ACP         0.1050
     45 HN61       -5.2371   -3.9234   -0.8448 H         1 ACP         0.4211
     46 HN62       -5.2909   -5.5485   -0.2160 H         1 ACP         0.4211
     47 H2         -1.8433   -5.7650    2.8259 H         1 ACP         0.0375
@<TRIPOS>BOND
     1    1    2 2
     2    1    3 1
     3    1    4 1
     4    1    8 1
     5    4   32 1
     6    5    6 2
     7    5    7 1
     8    5    8 1
     9    5   12 1
    10    7   33 1
    11    8   34 1
    12    8   35 1
    13    9   10 2
    14    9   11 1
    15    9   12 1
    16    9   13 1
    17   13   14 1
    18   14   15 1
    19   14   36 1
    20   14   37 1
    21   15   16 1
    22   15   17 1
    23   15   38 1
    24   16   21 1
    25   17   18 1
    26   17   19 1
    27   17   39 1
    28   18   40 1
    29   19   20 1
    30   19   21 1
    31   19   41 1
    32   20   42 1
    33   21   22 1
    34   21   43 1
    35   22   23 ar
    36   22   31 ar
    37   23   24 ar
    38   23   44 1
    39   24   25 ar
    40   25   26 ar
    41   25   31 ar
    42   26   27 1
    43   26   28 ar
    44   27   45 1
    45   27   46 1
    46   28   29 ar
    47   29   30 ar
    48   29   47 1
    49   30   31 ar
@<TRIPOS>SUBSTRUCTURE
     1 ACP         1 GROUP 0 A     ****
@<TRIPOS>MOLECULE
[[[5-(6-aminopurin-9-yl)-3,4-dihydroxy-tetrahydrofuran-2-yl]methoxy-oxido-phosphoryl]oxy-hydroxy-phosphoryl]methyl-hydroxy-phosphinate
   47    49     1     0     0
SMALL
USER_CHARGES

@<TRIPOS>ATOM
      1 PG          3.9859   -0.0889   -0.0845 P.3       1 ACP         1.3516
      2 O1G         4.9691    0.8467   -0.7488 O.co2     1 ACP        -0.8379
      3 O2G         4.3555   -0.9262    1.1180 O.co2     1 ACP        -0.8379
      4 O3G         2.5973    0.7109    0.2188 O.3       1 ACP        -0.7980
      5 PB          2.9571   -0.7126   -3.0689 P.3       1 ACP         1.7688
      6 O1B         2.4581   -1.8021   -3.9701 O.2       1 ACP        -0.9167
      7 O2B         4.3084    0.0180   -3.5709 O.3       1 ACP        -0.8201
      8 C3B         3.3534   -1.2381   -1.3877 C.3       1 ACP        -0.6097
      9 PA          1.2408    1.5709   -3.8403 P.3       1 ACP         1.5979
     10 O1A         0.2698    0.8126   -4.7190 O.co2     1 ACP        -0.8617
     11 O2A         2.3152    2.4446   -4.4502 O.co2     1 ACP        -0.8617
     12 O3A         1.9365    0.5115   -2.8122 O.3       1 ACP        -0.8283
     13 O5'         0.3757    2.4481   -2.7643 O.3       1 ACP        -0.5783
     14 C5'        -0.7794    1.8744   -2.1748 C.3       1 ACP         0.1980
     15 C4'        -0.9699    2.4597   -0.7819 C.3       1 ACP         0.0815
     16 O4'        -2.1475    1.8640   -0.2014 O.3       1 ACP        -0.4127
     17 C3'         0.1697    2.1347    0.1695 C.3       1 ACP         0.0890
     18 O3'         0.1809    3.0982    1.2223 O.3       1 ACP        -0.6221
     19 C2'        -0.2543    0.7880    0.7187 C.3       1 ACP         0.1067
     20 O2'         0.3606    0.4944    1.9582 O.3       1 ACP        -0.6053
     21 C1'        -1.7682    0.9516    0.8548 C.3       1 ACP         0.4223
     22 N9         -2.5926   -0.2553    0.7436 N.pl3     1 ACP        -0.6834
     23 C8         -3.1120   -0.7726   -0.4135 C.ar      1 ACP         0.5614
     24 N7         -3.8089   -1.8688   -0.1980 N.2       1 ACP        -0.5751
     25 C5         -3.7380   -2.0700    1.1576 C.ar      1 ACP        -0.2117
     26 C6         -4.2662   -3.0526    1.9890 C.ar      1 ACP         0.7177
     27 N6         -5.0420   -4.0987    1.4609 N.pl3     1 ACP        -0.9401
     28 N1         -4.0226   -2.9899    3.3202 N.ar      1 ACP        -0.8008
     29 C2         -3.2679   -1.9585    3.7704 C.ar      1 ACP         0.6565
     30 N3         -2.7045   -0.9514    3.0680 N.ar      1 ACP        -0.7061
     31 C4         -2.9852   -1.0761    1.7622 C.ar      1 ACP         0.5715
     32 HOG3        2.6289    1.4983    0.8031 H         1 ACP         0.4226
     33 HOB2        4.3069    0.4752   -4.4386 H         1 ACP         0.4482
     34 H3B1        4.0875   -2.0486   -1.4583 H         1 ACP         0.1012
     35 H3B2        2.4398   -1.6695   -0.9646 H         1 ACP         0.1012
     36 H5'1       -1.6463    2.0967   -2.8051 H         1 ACP         0.0481
     37 H5'2       -0.6469    0.7893   -2.1194 H         1 ACP         0.0481
     38 H4'        -1.1469    3.5409   -0.8522 H         1 ACP         0.0904
     39 H3'         1.1601    2.1310   -0.2934 H         1 ACP         0.0809
     40 HO3'        0.9173    2.8584    1.8048 H         1 ACP         0.4528
     41 H2'        -0.0024   -0.0091    0.0062 H         1 ACP         0.0594
     42 HO2'        0.0384   -0.3797    2.2403 H         1 ACP         0.4344
     43 H1'        -2.0584    1.4255    1.8301 H         1 ACP         0.1127
     44 H8         -2.9491   -0.3098   -1.3772 H         1 ACP         0.1050
     45 HN61       -5.2544   -4.1089    0.4813 H         1 ACP         0.4211
     46 HN62       -5.4523   -4.7699    2.0823 H         1 ACP         0.4211
     47 H2         -3.0933   -1.9395    4.8410 H         1 ACP         0.0375
@<TRIPOS>BOND
     1    1    2 2
     2    1    3 1
     3    1    4 1
     4    1    8 1
     5    4   32 1
     6    5    6 2
     7    5    7 1
     8    5    8 1
     9    5   12 1
    10    7   33 1
    11    8   34 1
    12    8   35 1
    13    9   10 2
    14    9   11 1
    15    9   12 1
    16    9   13 1
    17   13   14 1
    18   14   15 1
    19   14   36 1
    20   14   37 1
    21   15   16 1
    22   15   17 1
    23   15   38 1
    24   16   21 1
    25   17   18 1
    26   17   19 1
    27   17   39 1
    28   18   40 1
    29   19   20 1
    30   19   21 1
    31   19   41 1
    32   20   42 1
    33   21   22 1
    34   21   43 1
    35   22   23 ar
    36   22   31 ar
    37   23   24 ar
    38   23   44 1
    39   24   25 ar
    40   25   26 ar
    41   25   31 ar
    42   26   27 1
    43   26   28 ar
    44   27   45 1
    45   27   46 1
    46   28   29 ar
    47   29   30 ar
    48   29   47 1
    49   30   31 ar
@<TRIPOS>SUBSTRUCTURE
     1 ACP         1 GROUP 0 A     ****
@<TRIPOS>MOLECULE
[[[5-(6-aminopurin-9-yl)-3,4-dihydroxy-tetrahydrofuran-2-yl]methoxy-oxido-phosphoryl]oxy-hydroxy-phosphoryl]methyl-hydroxy-phosphinate
   47    49     1     0     0
SMALL
USER_CHARGES

@<TRIPOS>ATOM
      1 PG         -2.2487    2.4497   -2.8243 P.3       1 ACP         1.3516
      2 O1G        -1.6219    1.0754   -2.8649 O.co2     1 ACP        -0.8379
      3 O2G        -3.4492    2.8139   -3.6668 O.co2     1 ACP        -0.8379
      4 O3G        -2.5270    2.8727   -1.2739 O.3       1 ACP        -0.7980
      5 PB          0.7688    3.5363   -2.5632 P.3       1 ACP         1.7688
      6 O1B         1.6965    4.6351   -2.9878 O.2       1 ACP        -0.9167
      7 O2B         1.2266    2.0515   -3.0076 O.3       1 ACP        -0.8201
      8 C3B        -0.9150    3.6741   -3.2001 C.3       1 ACP        -0.6097
      9 PA         -0.0886    4.4447    0.1191 P.3       1 ACP         1.5979
     10 O1A        -1.5542    4.6559   -0.1924 O.co2     1 ACP        -0.8617
     11 O2A         0.8512    5.6231    0.2521 O.co2     1 ACP        -0.8617
     12 O3A         0.5222    3.3979   -0.9739 O.3       1 ACP        -0.8283
     13 O5'         0.0181    3.5132    1.4596 O.3       1 ACP        -0.5783
     14 C5'        -0.8811    2.4285    1.6206 C.3       1 ACP         0.1980
     15 C4'        -0.1994    1.3333    2.4288 C.3       1 ACP         0.0815
     16 O4'        -1.1285    0.2356    2.5840 O.3       1 ACP        -0.4127
     17 C3'         1.0324    0.7610    1.7344 C.3       1 ACP         0.0890
     18 O3'         1.9175    0.2377    2.7247 O.3       1 ACP        -0.6221
     19 C2'         0.4468   -0.3802    0.9263 C.3       1 ACP         0.1067
     20 O2'         1.3993   -1.3703    0.5961 O.3       1 ACP        -0.6053
     21 C1'        -0.6159   -0.9100    1.8769 C.3       1 ACP         0.4223
     22 N9         -1.7127   -1.6108    1.2130 N.pl3     1 ACP        -0.6834
     23 C8         -1.7712   -2.9546    0.9544 C.ar      1 ACP         0.5614
     24 N7         -2.8883   -3.2948    0.3462 N.2       1 ACP        -0.5751
     25 C5         -3.5834   -2.1202    0.2043 C.ar      1 ACP        -0.2117
     26 C6         -4.8225   -1.8251   -0.3554 C.ar      1 ACP         0.7177
     27 N6         -5.6154   -2.8395   -0.9189 N.pl3     1 ACP        -0.9401
     28 N1         -5.2589   -0.5425   -0.3507 N.ar      1 ACP        -0.8008
     29 C2         -4.4510    0.3913    0.2069 C.ar      1 ACP         0.6565
     30 N3         -3.2368    0.2296    0.7767 N.ar      1 ACP        -0.7061
     31 C4         -2.8684   -1.0596    0.7376 C.ar      1 ACP         0.5715
     32 HOG3       -3.1221    2.3091   -0.7349 H         1 ACP         0.4226
     33 HOB2        2.0881    1.7055   -2.6912 H         1 ACP         0.4482
     34 H3B1       -0.8525    3.7272   -4.2930 H         1 ACP         0.1012
     35 H3B2       -1.3090    4.6359   -2.8548 H         1 ACP         0.1012
     36 H5'1       -1.7769    2.7851    2.1387 H         1 ACP         0.0481
     37 H5'2       -1.1653    2.0543    0.6320 H         1 ACP         0.0481
     38 H4'         0.0403    1.7078    3.4343 H         1 ACP         0.0904
     39 H3'         1.5906    1.4859    1.1353 H         1 ACP         0.0809
     40 HO3'        2.1521    0.9800    3.3017 H         1 ACP         0.4528
     41 H2'        -0.0017    0.0018    0.0005 H         1 ACP         0.0594
     42 HO2'        0.9369   -2.0558    0.0825 H         1 ACP         0.4344
     43 H1'        -0.1998   -1.6319    2.6178 H         1 ACP         0.1127
     44 H8         -0.9745   -3.6312    1.2318 H         1 ACP         0.1050
     45 HN61       -5.2619   -3.7766   -0.9586 H         1 ACP         0.4211
     46 HN62       -6.4834   -2.5990   -1.3590 H         1 ACP         0.4211
     47 H2         -4.8317    1.4071    0.1930 H         1 ACP         0.0375
@<TRIPOS>BOND
     1    1    2 2
     2    1    3 1
     3    1    4 1
     4    1    8 1
     5    4   32 1
     6    5    6 2
     7    5    7 1
     8    5    8 1
     9    5   12 1
    10    7   33 1
    11    8   34 1
    12    8   35 1
    13    9   10 2
    14    9   11 1
    15    9   12 1
    16    9   13 1
    17   13   14 1
    18   14   15 1
    19   14   36 1
    20   14   37 1
    21   15   16 1
    22   15   17 1
    23   15   38 1
    24   16   21 1
    25   17   18 1
    26   17   19 1
    27   17   39 1
    28   18   40 1
    29   19   20 1
    30   19   21 1
    31   19   41 1
    32   20   42 1
    33   21   22 1
    34   21   43 1
    35   22   23 ar
    36   22   31 ar
    37   23   24 ar
    38   23   44 1
    39   24   25 ar
    40   25   26 ar
    41   25   31 ar
    42   26   27 1
    43   26   28 ar
    44   27   45 1
    45   27   46 1
    46   28   29 ar
    47   29   30 ar
    48   29   47 1
    49   30   31 ar
@<TRIPOS>SUBSTRUCTURE
     1 ACP         1 GROUP 0 A     ****
@<TRIPOS>MOLECULE
[[[5-(6-aminopurin-9-yl)-3,4-dihydroxy-tetrahydrofuran-2-yl]methoxy-oxido-phosphoryl]oxy-hydroxy-phosphoryl]methyl-hydroxy-phosphinate
   47    49     1     0     0
SMALL
USER_CHARGES

@<TRIPOS>ATOM
      1 PG         -4.3779    5.8060    1.6165 P.3       1 ACP         1.3516
      2 O1G        -4.4101    4.9286    2.8463 O.co2     1 ACP        -0.8379
      3 O2G        -5.0950    7.1348    1.5547 O.co2     1 ACP        -0.8379
      4 O3G        -2.8333    6.0013    1.1306 O.3       1 ACP        -0.7980
      5 PB         -4.1692    3.2648   -0.3464 P.3       1 ACP         1.7688
      6 O1B        -4.8164    2.5886   -1.5177 O.2       1 ACP        -0.9167
      7 O2B        -4.0932    2.3701    0.9972 O.3       1 ACP        -0.8201
      8 C3B        -4.9779    4.7851    0.1963 C.3       1 ACP        -0.6097
      9 PA         -1.2907    2.9171   -0.9369 P.3       1 ACP         1.5979
     10 O1A        -0.1118    3.8610   -0.8407 O.co2     1 ACP        -0.8617
     11 O2A        -1.5350    2.1110   -2.1940 O.co2     1 ACP        -0.8617
     12 O3A        -2.6451    3.7491   -0.5668 O.3       1 ACP        -0.8283
     13 O5'        -1.2434    1.9102    0.3513 O.3       1 ACP        -0.5783
     14 C5'        -0.8811    2.4285    1.6206 C.3       1 ACP         0.1980
     15 C4'        -0.1994    1.3333    2.4288 C.3       1 ACP         0.0815
     16 O4'        -1.1285    0.2356    2.5840 O.3       1 ACP        -0.4127
     17 C3'         1.0324    0.7610    1.7344 C.3       1 ACP         0.0890
     18 O3'         1.9175    0.2377    2.7247 O.3       1 ACP        -0.6221
     19 C2'         0.4468   -0.3802    0.9263 C.3       1 ACP         0.1067
     20 O2'         1.3993   -1.3703    0.5961 O.3       1 ACP        -0.6053
     21 C1'        -0.6159   -0.9100    1.8769 C.3       1 ACP         0.4223
     22 N9         -1.7127   -1.6108    1.2130 N.pl3     1 ACP        -0.6834
     23 C8         -2.8641   -1.0399    0.7392 C.ar      1 ACP         0.5614
     24 N7         -3.6659   -1.9257    0.1858 N.2       1 ACP        -0.5751
     25 C5         -3.0053   -3.1223    0.3069 C.ar      1 ACP        -0.2117
     26 C6         -3.3321   -4.4178   -0.0813 C.ar      1 ACP         0.7177
     27 N6         -4.5476   -4.6866   -0.7335 N.pl3     1 ACP        -0.9401
     28 N1         -2.4608   -5.4225    0.1773 N.ar      1 ACP        -0.8008
     29 C2         -1.3053   -5.1020    0.8081 C.ar      1 ACP         0.6565
     30 N3         -0.8788   -3.8921    1.2315 N.ar      1 ACP        -0.7061
     31 C4         -1.7870   -2.9477    0.9438 C.ar      1 ACP         0.5715
     32 HOG3       -2.1965    6.4153    1.7513 H         1 ACP         0.4226
     33 HOB2       -3.6043    1.5200    0.9749 H         1 ACP         0.4482
     34 H3B1       -6.0234    4.5431    0.4183 H         1 ACP         0.1012
     35 H3B2       -4.9821    5.4675   -0.6603 H         1 ACP         0.1012
     36 H5'1       -0.2034    3.2760    1.4766 H         1 ACP         0.0481
     37 H5'2       -1.7842    2.7761    2.1321 H         1 ACP         0.0481
     38 H4'         0.0403    1.7078    3.4343 H         1 ACP         0.0904
     39 H3'         1.5906    1.4859    1.1353 H         1 ACP         0.0809
     40 HO3'        2.6839   -0.1150    2.2479 H         1 ACP         0.4528
     41 H2'        -0.0017    0.0018    0.0005 H         1 ACP         0.0594
     42 HO2'        2.0953   -0.9375    0.0709 H         1 ACP         0.4344
     43 H1'        -0.1998   -1.6319    2.6178 H         1 ACP         0.1127
     44 H8         -3.0609    0.0200    0.8250 H         1 ACP         0.1050
     45 HN61       -5.2046   -3.9433   -0.8775 H         1 ACP         0.4211
     46 HN62       -4.7849   -5.6332   -0.9625 H         1 ACP         0.4211
     47 H2         -0.6318   -5.9307    0.9993 H         1 ACP         0.0375
@<TRIPOS>BOND
     1    1    2 2
     2    1    3 1
     3    1    4 1
     4    1    8 1
     5    4   32 1
     6    5    6 2
     7    5    7 1
     8    5    8 1
     9    5   12 1
    10    7   33 1
    11    8   34 1
    12    8   35 1
    13    9   10 2
    14    9   11 1
    15    9   12 1
    16    9   13 1
    17   13   14 1
    18   14   15 1
    19   14   36 1
    20   14   37 1
    21   15   16 1
    22   15   17 1
    23   15   38 1
    24   16   21 1
    25   17   18 1
    26   17   19 1
    27   17   39 1
    28   18   40 1
    29   19   20 1
    30   19   21 1
    31   19   41 1
    32   20   42 1
    33   21   22 1
    34   21   43 1
    35   22   23 ar
    36   22   31 ar
    37   23   24 ar
    38   23   44 1
    39   24   25 ar
    40   25   26 ar
    41   25   31 ar
    42   26   27 1
    43   26   28 ar
    44   27   45 1
    45   27   46 1
    46   28   29 ar
    47   29   30 ar
    48   29   47 1
    49   30   31 ar
@<TRIPOS>SUBSTRUCTURE
     1 ACP         1 GROUP 0 A     ****
@<TRIPOS>MOLECULE
[[[5-(6-aminopurin-9-yl)-3,4-dihydroxy-tetrahydrofuran-2-yl]methoxy-oxido-phosphoryl]oxy-hydroxy-phosphoryl]methyl-hydroxy-phosphinate
   47    49     1     0     0
SMALL
USER_CHARGES

@<TRIPOS>ATOM
      1 PG         -6.7885    1.0330    0.2299 P.3       1 ACP         1.3516
      2 O1G        -6.1807    2.1111   -0.6370 O.co2     1 ACP        -0.8379
      3 O2G        -7.9616    1.2993    1.1446 O.co2     1 ACP        -0.8379
      4 O3G        -7.1004   -0.2832   -0.6814 O.3       1 ACP        -0.7980
      5 PB         -4.4521    1.3042    2.4257 P.3       1 ACP         1.7688
      6 O1B        -3.3969    0.5380    3.1657 O.2       1 ACP        -0.9167
      7 O2B        -5.5643    2.0073    3.3639 O.3       1 ACP        -0.8201
      8 C3B        -5.4281    0.3261    1.2636 C.3       1 ACP        -0.6097
      9 PA         -3.0801    3.8628    1.8538 P.3       1 ACP         1.5979
     10 O1A        -3.7975    4.5869    2.9722 O.co2     1 ACP        -0.8617
     11 O2A        -2.7276    4.5805    0.5692 O.co2     1 ACP        -0.8617
     12 O3A        -3.9225    2.5119    1.4945 O.3       1 ACP        -0.8283
     13 O5'        -1.7337    3.1724    2.4753 O.3       1 ACP        -0.5783
     14 C5'        -0.8811    2.4285    1.6206 C.3       1 ACP         0.1980
     15 C4'        -0.1994    1.3333    2.4288 C.3       1 ACP         0.0815
     16 O4'        -1.1285    0.2356    2.5840 O.3       1 ACP        -0.4127
     17 C3'         1.0324    0.7610    1.7344 C.3       1 ACP         0.0890
     18 O3'         1.9175    0.2377    2.7247 O.3       1 ACP        -0.6221
     19 C2'         0.4468   -0.3802    0.9263 C.3       1 ACP         0.1067
     20 O2'         1.3993   -1.3703    0.5961 O.3       1 ACP        -0.6053
     21 C1'        -0.6159   -0.9100    1.8769 C.3       1 ACP         0.4223
     22 N9         -1.7127   -1.6108    1.2130 N.pl3     1 ACP        -0.6834
     23 C8         -2.5476   -1.0844    0.2632 C.ar      1 ACP         0.5614
     24 N7         -3.4391   -1.9591   -0.1536 N.2       1 ACP        -0.5751
     25 C5         -3.1701   -3.1016    0.5574 C.ar      1 ACP        -0.2117
     26 C6         -3.7593   -4.3620    0.5656 C.ar      1 ACP         0.7177
     27 N6         -4.8512   -4.6493   -0.2712 N.pl3     1 ACP        -0.9401
     28 N1         -3.2659   -5.3144    1.3932 N.ar      1 ACP        -0.8008
     29 C2         -2.2122   -4.9785    2.1759 C.ar      1 ACP         0.6565
     30 N3         -1.5595   -3.7985    2.2572 N.ar      1 ACP        -0.7061
     31 C4         -2.0986   -2.9054    1.4140 C.ar      1 ACP         0.5715
     32 HOG3       -7.7172   -0.1923   -1.4388 H         1 ACP         0.4226
     33 HOB2       -5.2764    2.6715    4.0257 H         1 ACP         0.4482
     34 H3B1       -5.8734   -0.5048    1.8223 H         1 ACP         0.1012
     35 H3B2       -4.7256   -0.1107    0.5457 H         1 ACP         0.1012
     36 H5'1       -1.4802    1.9928    0.8147 H         1 ACP         0.0481
     37 H5'2       -0.1369    3.1042    1.1873 H         1 ACP         0.0481
     38 H4'         0.0403    1.7078    3.4343 H         1 ACP         0.0904
     39 H3'         1.5906    1.4859    1.1353 H         1 ACP         0.0809
     40 HO3'        2.6839   -0.1150    2.2479 H         1 ACP         0.4528
     41 H2'        -0.0017    0.0018    0.0005 H         1 ACP         0.0594
     42 HO2'        2.0953   -0.9375    0.0709 H         1 ACP         0.4344
     43 H1'        -0.1998   -1.6319    2.6178 H         1 ACP         0.1127
     44 H8         -2.4576   -0.0639   -0.0831 H         1 ACP         0.1050
     45 HN61       -5.2371   -3.9234   -0.8448 H         1 ACP         0.4211
     46 HN62       -5.2909   -5.5485   -0.2160 H         1 ACP         0.4211
     47 H2         -1.8433   -5.7650    2.8259 H         1 ACP         0.0375
@<TRIPOS>BOND
     1    1    2 2
     2    1    3 1
     3    1    4 1
     4    1    8 1
     5    4   32 1
     6    5    6 2
     7    5    7 1
     8    5    8 1
     9    5   12 1
    10    7   33 1
    11    8   34 1
    12    8   35 1
    13    9   10 2
    14    9   11 1
    15    9   12 1
    16    9   13 1
    17   13   14 1
    18   14   15 1
    19   14   36 1
    20   14   37 1
    21   15   16 1
    22   15   17 1
    23   15   38 1
    24   16   21 1
    25   17   18 1
    26   17   19 1
    27   17   39 1
    28   18   40 1
    29   19   20 1
    30   19   21 1
    31   19   41 1
    32   20   42 1
    33   21   22 1
    34   21   43 1
    35   22   23 ar
    36   22   31 ar
    37   23   24 ar
    38   23   44 1
    39   24   25 ar
    40   25   26 ar
    41   25   31 ar
    42   26   27 1
    43   26   28 ar
    44   27   45 1
    45   27   46 1
    46   28   29 ar
    47   29   30 ar
    48   29   47 1
    49   30   31 ar
@<TRIPOS>SUBSTRUCTURE
     1 ACP         1 GROUP 0 A     ****
@<TRIPOS>MOLECULE
[[[5-(6-aminopurin-9-yl)-3,4-dihydroxy-tetrahydrofuran-2-yl]methoxy-oxido-phosphoryl]oxy-hydroxy-phosphoryl]methyl-hydroxy-phosphinate
   47    49     1     0     0
SMALL
USER_CHARGES

@<TRIPOS>ATOM
      1 PG         -5.1919    6.2672   -0.8883 P.3       1 ACP         1.3516
      2 O1G        -3.8123    6.7266   -1.2993 O.co2     1 ACP        -0.8379
      3 O2G        -6.1795    7.1876   -0.2090 O.co2     1 ACP        -0.8379
      4 O3G        -5.9169    5.5326   -2.1512 O.3       1 ACP        -0.7980
      5 PB         -4.1692    3.2648   -0.3464 P.3       1 ACP         1.7688
      6 O1B        -4.8164    2.5886   -1.5177 O.2       1 ACP        -0.9167
      7 O2B        -4.0932    2.3701    0.9972 O.3       1 ACP        -0.8201
      8 C3B        -4.9779    4.7851    0.1963 C.3       1 ACP        -0.6097
      9 PA         -1.2907    2.9171   -0.9369 P.3       1 ACP         1.5979
     10 O1A        -0.1118    3.8610   -0.8407 O.co2     1 ACP        -0.8617
     11 O2A        -1.5350    2.1110   -2.1940 O.co2     1 ACP        -0.8617
     12 O3A        -2.6451    3.7491   -0.5668 O.3       1 ACP        -0.8283
     13 O5'        -1.2434    1.9102    0.3513 O.3       1 ACP        -0.5783
     14 C5'        -0.8811    2.4285    1.6206 C.3       1 ACP         0.1980
     15 C4'        -0.1994    1.3333    2.4288 C.3       1 ACP         0.0815
     16 O4'        -1.1285    0.2356    2.5840 O.3       1 ACP        -0.4127
     17 C3'         1.0324    0.7610    1.7344 C.3       1 ACP         0.0890
     18 O3'         1.9175    0.2377    2.7247 O.3       1 ACP        -0.6221
     19 C2'         0.4468   -0.3802    0.9263 C.3       1 ACP         0.1067
     20 O2'         1.3993   -1.3703    0.5961 O.3       1 ACP        -0.6053
     21 C1'        -0.6159   -0.9100    1.8769 C.3       1 ACP         0.4223
     22 N9         -1.7127   -1.6108    1.2130 N.pl3     1 ACP        -0.6834
     23 C8         -2.8641   -1.0399    0.7392 C.ar      1 ACP         0.5614
     24 N7         -3.6659   -1.9257    0.1858 N.2       1 ACP        -0.5751
     25 C5         -3.0053   -3.1223    0.3069 C.ar      1 ACP        -0.2117
     26 C6         -3.3321   -4.4178   -0.0813 C.ar      1 ACP         0.7177
     27 N6         -4.5476   -4.6866   -0.7335 N.pl3     1 ACP        -0.9401
     28 N1         -2.4608   -5.4225    0.1773 N.ar      1 ACP        -0.8008
     29 C2         -1.3053   -5.1020    0.8081 C.ar      1 ACP         0.6565
     30 N3         -0.8788   -3.8921    1.2315 N.ar      1 ACP        -0.7061
     31 C4         -1.7870   -2.9477    0.9438 C.ar      1 ACP         0.5715
     32 HOG3       -6.0583    6.0478   -2.9738 H         1 ACP         0.4226
     33 HOB2       -3.6043    1.5200    0.9749 H         1 ACP         0.4482
     34 H3B1       -4.4529    5.1384    1.0910 H         1 ACP         0.1012
     35 H3B2       -5.9925    4.5134    0.5068 H         1 ACP         0.1012
     36 H5'1       -0.2034    3.2760    1.4766 H         1 ACP         0.0481
     37 H5'2       -1.7842    2.7761    2.1321 H         1 ACP         0.0481
     38 H4'         0.0403    1.7078    3.4343 H         1 ACP         0.0904
     39 H3'         1.5906    1.4859    1.1353 H         1 ACP         0.0809
     40 HO3'        2.6839   -0.1150    2.2479 H         1 ACP         0.4528
     41 H2'        -0.0017    0.0018    0.0005 H         1 ACP         0.0594
     42 HO2'        2.0953   -0.9375    0.0709 H         1 ACP         0.4344
     43 H1'        -0.1998   -1.6319    2.6178 H         1 ACP         0.1127
     44 H8         -3.0609    0.0200    0.8250 H         1 ACP         0.1050
     45 HN61       -5.2046   -3.9433   -0.8775 H         1 ACP         0.4211
     46 HN62       -4.7849   -5.6332   -0.9625 H         1 ACP         0.4211
     47 H2         -0.6318   -5.9307    0.9993 H         1 ACP         0.0375
@<TRIPOS>BOND
     1    1    2 2
     2    1    3 1
     3    1    4 1
     4    1    8 1
     5    4   32 1
     6    5    6 2
     7    5    7 1
     8    5    8 1
     9    5   12 1
    10    7   33 1
    11    8   34 1
    12    8   35 1
    13    9   10 2
    14    9   11 1
    15    9   12 1
    16    9   13 1
    17   13   14 1
    18   14   15 1
    19   14   36 1
    20   14   37 1
    21   15   16 1
    22   15   17 1
    23   15   38 1
    24   16   21 1
    25   17   18 1
    26   17   19 1
    27   17   39 1
    28   18   40 1
    29   19   20 1
    30   19   21 1
    31   19   41 1
    32   20   42 1
    33   21   22 1
    34   21   43 1
    35   22   23 ar
    36   22   31 ar
    37   23   24 ar
    38   23   44 1
    39   24   25 ar
    40   25   26 ar
    41   25   31 ar
    42   26   27 1
    43   26   28 ar
    44   27   45 1
    45   27   46 1
    46   28   29 ar
    47   29   30 ar
    48   29   47 1
    49   30   31 ar
@<TRIPOS>SUBSTRUCTURE
     1 ACP         1 GROUP 0 A     ****
@<TRIPOS>MOLECULE
[[[5-(6-aminopurin-9-yl)-3,4-dihydroxy-tetrahydrofuran-2-yl]methoxy-oxido-phosphoryl]oxy-hydroxy-phosphoryl]methyl-hydroxy-phosphinate
   47    49     1     0     0
SMALL
USER_CHARGES

@<TRIPOS>ATOM
      1 PG          2.0898   -1.9980   -2.8129 P.3       1 ACP         1.3516
      2 O1G         2.7804   -3.3301   -2.9921 O.co2     1 ACP        -0.8379
      3 O2G         0.7336   -1.7055   -3.4119 O.co2     1 ACP        -0.8379
      4 O3G         2.0799   -1.6015   -1.2309 O.3       1 ACP        -0.7980
      5 PB          2.8617    1.0719   -3.3906 P.3       1 ACP         1.7688
      6 O1B         3.9443    1.9651   -3.9184 O.2       1 ACP        -0.9167
      7 O2B         2.4359    1.3542   -1.8574 O.3       1 ACP        -0.8201
      8 C3B         3.2534   -0.6905   -3.4090 C.3       1 ACP        -0.6097
      9 PA          0.4196    2.3431   -4.4748 P.3       1 ACP         1.5979
     10 O1A        -0.8226    1.7708   -5.1225 O.co2     1 ACP        -0.8617
     11 O2A         1.1708    3.4871   -5.1201 O.co2     1 ACP        -0.8617
     12 O3A         1.4593    1.1180   -4.1888 O.3       1 ACP        -0.8283
     13 O5'         0.0525    2.7389   -2.9307 O.3       1 ACP        -0.5783
     14 C5'        -0.7794    1.8744   -2.1748 C.3       1 ACP         0.1980
     15 C4'        -0.9699    2.4597   -0.7819 C.3       1 ACP         0.0815
     16 O4'        -2.1475    1.8640   -0.2014 O.3       1 ACP        -0.4127
     17 C3'         0.1697    2.1347    0.1695 C.3       1 ACP         0.0890
     18 O3'         0.1809    3.0982    1.2223 O.3       1 ACP        -0.6221
     19 C2'        -0.2543    0.7880    0.7187 C.3       1 ACP         0.1067
     20 O2'         0.3606    0.4944    1.9582 O.3       1 ACP        -0.6053
     21 C1'        -1.7682    0.9516    0.8548 C.3       1 ACP         0.4223
     22 N9         -2.5926   -0.2553    0.7436 N.pl3     1 ACP        -0.6834
     23 C8         -2.6464   -1.0979   -0.3350 C.ar      1 ACP         0.5614
     24 N7         -3.4765   -2.1012   -0.1401 N.2       1 ACP        -0.5751
     25 C5         -3.9826   -1.8994    1.1194 C.ar      1 ACP        -0.2117
     26 C6         -4.8981   -2.6116    1.8877 C.ar      1 ACP         0.7177
     27 N6         -5.4931   -3.7842    1.3916 N.pl3     1 ACP        -0.9401
     28 N1         -5.2111   -2.1602    3.1262 N.ar      1 ACP        -0.8008
     29 C2         -4.6051   -1.0248    3.5500 C.ar      1 ACP         0.6565
     30 N3         -3.7075   -0.2510    2.9016 N.ar      1 ACP        -0.7061
     31 C4         -3.4448   -0.7551    1.6866 C.ar      1 ACP         0.5715
     32 HOG3        1.6309   -2.2041   -0.6004 H         1 ACP         0.4226
     33 HOB2        2.0866    2.2385   -1.6165 H         1 ACP         0.4482
     34 H3B1        4.1808   -0.8296   -2.8419 H         1 ACP         0.1012
     35 H3B2        3.4706   -0.9582   -4.4486 H         1 ACP         0.1012
     36 H5'1       -1.7435    1.7763   -2.6838 H         1 ACP         0.0481
     37 H5'2       -0.3053    0.8897   -2.1148 H         1 ACP         0.0481
     38 H4'        -1.1469    3.5409   -0.8522 H         1 ACP         0.0904
     39 H3'         1.1601    2.1310   -0.2934 H         1 ACP         0.0809
     40 HO3'        0.9173    2.8584    1.8048 H         1 ACP         0.4528
     41 H2'        -0.0024   -0.0091    0.0062 H         1 ACP         0.0594
     42 HO2'        0.0384   -0.3797    2.2403 H         1 ACP         0.4344
     43 H1'        -2.0584    1.4255    1.8301 H         1 ACP         0.1127
     44 H8         -2.0609   -0.9301   -1.2286 H         1 ACP         0.1050
     45 HN61       -5.2894   -4.0827    0.4566 H         1 ACP         0.4211
     46 HN62       -6.1852   -4.2564    1.9420 H         1 ACP         0.4211
     47 H2         -4.8793   -0.6924    4.5457 H         1 ACP         0.0375
@<TRIPOS>BOND
     1    1    2 2
     2    1    3 1
     3    1    4 1
     4    1    8 1
     5    4   32 1
     6    5    6 2
     7    5    7 1
     8    5    8 1
     9    5   12 1
    10    7   33 1
    11    8   34 1
    12    8   35 1
    13    9   10 2
    14    9   11 1
    15    9   12 1
    16    9   13 1
    17   13   14 1
    18   14   15 1
    19   14   36 1
    20   14   37 1
    21   15   16 1
    22   15   17 1
    23   15   38 1
    24   16   21 1
    25   17   18 1
    26   17   19 1
    27   17   39 1
    28   18   40 1
    29   19   20 1
    30   19   21 1
    31   19   41 1
    32   20   42 1
    33   21   22 1
    34   21   43 1
    35   22   23 ar
    36   22   31 ar
    37   23   24 ar
    38   23   44 1
    39   24   25 ar
    40   25   26 ar
    41   25   31 ar
    42   26   27 1
    43   26   28 ar
    44   27   45 1
    45   27   46 1
    46   28   29 ar
    47   29   30 ar
    48   29   47 1
    49   30   31 ar
@<TRIPOS>SUBSTRUCTURE
     1 ACP         1 GROUP 0 A     ****
@<TRIPOS>MOLECULE
[[[5-(6-aminopurin-9-yl)-3,4-dihydroxy-tetrahydrofuran-2-yl]methoxy-oxido-phosphoryl]oxy-hydroxy-phosphoryl]methyl-hydroxy-phosphinate
   47    49     1     0     0
SMALL
USER_CHARGES

@<TRIPOS>ATOM
      1 PG         -1.9023    4.7205   -2.2359 P.3       1 ACP         1.3516
      2 O1G        -0.3970    4.6621   -2.3545 O.co2     1 ACP        -0.8379
      3 O2G        -2.8052    4.7774   -3.4464 O.co2     1 ACP        -0.8379
      4 O3G        -2.4131    3.5387   -1.2346 O.3       1 ACP        -0.7980
      5 PB         -1.3710    6.6225    0.3046 P.3       1 ACP         1.7688
      6 O1B        -1.8723    7.8356    1.0294 O.2       1 ACP        -0.9167
      7 O2B         0.1492    6.7325   -0.2327 O.3       1 ACP        -0.8201
      8 C3B        -2.3142    6.1725   -1.1677 C.3       1 ACP        -0.6097
      9 PA         -2.5929    4.4189    1.8558 P.3       1 ACP         1.5979
     10 O1A        -3.4944    3.8755    0.7687 O.co2     1 ACP        -0.8617
     11 O2A        -3.1598    5.2480    2.9876 O.co2     1 ACP        -0.8617
     12 O3A        -1.3771    5.2459    1.1477 O.3       1 ACP        -0.8283
     13 O5'        -1.7337    3.1724    2.4753 O.3       1 ACP        -0.5783
     14 C5'        -0.8811    2.4285    1.6206 C.3       1 ACP         0.1980
     15 C4'        -0.1994    1.3333    2.4288 C.3       1 ACP         0.0815
     16 O4'        -1.1285    0.2356    2.5840 O.3       1 ACP        -0.4127
     17 C3'         1.0324    0.7610    1.7344 C.3       1 ACP         0.0890
     18 O3'         1.9175    0.2377    2.7247 O.3       1 ACP        -0.6221
     19 C2'         0.4468   -0.3802    0.9263 C.3       1 ACP         0.1067
     20 O2'         1.3993   -1.3703    0.5961 O.3       1 ACP        -0.6053
     21 C1'        -0.6159   -0.9100    1.8769 C.3       1 ACP         0.4223
     22 N9         -1.7127   -1.6108    1.2130 N.pl3     1 ACP        -0.6834
     23 C8         -1.7712   -2.9546    0.9544 C.ar      1 ACP         0.5614
     24 N7         -2.8883   -3.2948    0.3462 N.2       1 ACP        -0.5751
     25 C5         -3.5834   -2.1202    0.2043 C.ar      1 ACP        -0.2117
     26 C6         -4.8225   -1.8251   -0.3554 C.ar      1 ACP         0.7177
     27 N6         -5.6154   -2.8395   -0.9189 N.pl3     1 ACP        -0.9401
     28 N1         -5.2589   -0.5425   -0.3507 N.ar      1 ACP        -0.8008
     29 C2         -4.4510    0.3913    0.2069 C.ar      1 ACP         0.6565
     30 N3         -3.2368    0.2296    0.7767 N.ar      1 ACP        -0.7061
     31 C4         -2.8684   -1.0596    0.7376 C.ar      1 ACP         0.5715
     32 HOG3       -2.2156    2.6074   -1.4711 H         1 ACP         0.4226
     33 HOB2        0.8720    6.8795    0.4139 H         1 ACP         0.4482
     34 H3B1       -2.3258    7.0435   -1.8328 H         1 ACP         0.1012
     35 H3B2       -3.3469    6.0020   -0.8452 H         1 ACP         0.1012
     36 H5'1       -1.4802    1.9928    0.8147 H         1 ACP         0.0481
     37 H5'2       -0.1369    3.1042    1.1873 H         1 ACP         0.0481
     38 H4'         0.0403    1.7078    3.4343 H         1 ACP         0.0904
     39 H3'         1.5906    1.4859    1.1353 H         1 ACP         0.0809
     40 HO3'        2.1521    0.9800    3.3017 H         1 ACP         0.4528
     41 H2'        -0.0017    0.0018    0.0005 H         1 ACP         0.0594
     42 HO2'        0.9369   -2.0558    0.0825 H         1 ACP         0.4344
     43 H1'        -0.1998   -1.6319    2.6178 H         1 ACP         0.1127
     44 H8         -0.9745   -3.6312    1.2318 H         1 ACP         0.1050
     45 HN61       -5.2619   -3.7766   -0.9586 H         1 ACP         0.4211
     46 HN62       -6.4834   -2.5990   -1.3590 H         1 ACP         0.4211
     47 H2         -4.8317    1.4071    0.1930 H         1 ACP         0.0375
@<TRIPOS>BOND
     1    1    2 2
     2    1    3 1
     3    1    4 1
     4    1    8 1
     5    4   32 1
     6    5    6 2
     7    5    7 1
     8    5    8 1
     9    5   12 1
    10    7   33 1
    11    8   34 1
    12    8   35 1
    13    9   10 2
    14    9   11 1
    15    9   12 1
    16    9   13 1
    17   13   14 1
    18   14   15 1
    19   14   36 1
    20   14   37 1
    21   15   16 1
    22   15   17 1
    23   15   38 1
    24   16   21 1
    25   17   18 1
    26   17   19 1
    27   17   39 1
    28   18   40 1
    29   19   20 1
    30   19   21 1
    31   19   41 1
    32   20   42 1
    33   21   22 1
    34   21   43 1
    35   22   23 ar
    36   22   31 ar
    37   23   24 ar
    38   23   44 1
    39   24   25 ar
    40   25   26 ar
    41   25   31 ar
    42   26   27 1
    43   26   28 ar
    44   27   45 1
    45   27   46 1
    46   28   29 ar
    47   29   30 ar
    48   29   47 1
    49   30   31 ar
@<TRIPOS>SUBSTRUCTURE
     1 ACP         1 GROUP 0 A     ****
@<TRIPOS>MOLECULE
[[[5-(6-aminopurin-9-yl)-3,4-dihydroxy-tetrahydrofuran-2-yl]methoxy-oxido-phosphoryl]oxy-hydroxy-phosphoryl]methyl-hydroxy-phosphinate
   47    49     1     0     0
SMALL
USER_CHARGES

@<TRIPOS>ATOM
      1 PG         -5.3230   -0.7493   -5.0866 P.3       1 ACP         1.3516
      2 O1G        -5.2733   -1.7213   -3.9307 O.co2     1 ACP        -0.8379
      3 O2G        -6.4615   -0.7352   -6.0803 O.co2     1 ACP        -0.8379
      4 O3G        -5.0685    0.7637   -4.5335 O.3       1 ACP        -0.7980
      5 PB         -2.1423   -1.2017   -5.2684 P.3       1 ACP         1.7688
      6 O1B        -0.9965   -1.3433   -6.2251 O.2       1 ACP        -0.9167
      7 O2B        -2.3769   -2.4719   -4.2972 O.3       1 ACP        -0.8201
      8 C3B        -3.7537   -0.9517   -6.0435 C.3       1 ACP        -0.6097
      9 PA         -1.9759    1.6544   -4.5130 P.3       1 ACP         1.5979
     10 O1A        -3.2901    2.1043   -5.1133 O.co2     1 ACP        -0.8617
     11 O2A        -0.6640    1.9759   -5.1952 O.co2     1 ACP        -0.8617
     12 O3A        -2.0574    0.0461   -4.2477 O.3       1 ACP        -0.8283
     13 O5'        -1.9207    2.1716   -2.9622 O.3       1 ACP        -0.5783
     14 C5'        -0.7794    1.8744   -2.1748 C.3       1 ACP         0.1980
     15 C4'        -0.9699    2.4597   -0.7819 C.3       1 ACP         0.0815
     16 O4'        -2.1475    1.8640   -0.2014 O.3       1 ACP        -0.4127
     17 C3'         0.1697    2.1347    0.1695 C.3       1 ACP         0.0890
     18 O3'         0.1809    3.0982    1.2223 O.3       1 ACP        -0.6221
     19 C2'        -0.2543    0.7880    0.7187 C.3       1 ACP         0.1067
     20 O2'         0.3606    0.4944    1.9582 O.3       1 ACP        -0.6053
     21 C1'        -1.7682    0.9516    0.8548 C.3       1 ACP         0.4223
     22 N9         -2.5926   -0.2553    0.7436 N.pl3     1 ACP        -0.6834
     23 C8         -3.5599   -0.4866   -0.1983 C.ar      1 ACP         0.5614
     24 N7         -4.1294   -1.6639   -0.0461 N.2       1 ACP        -0.5751
     25 C5         -3.5041   -2.2191    1.0420 C.ar      1 ACP        -0.2117
     26 C6         -3.6605   -3.4390    1.6925 C.ar      1 ACP         0.7177
     27 N6         -4.6108   -4.3735    1.2468 N.pl3     1 ACP        -0.9401
     28 N1         -2.8820   -3.7179    2.7657 N.ar      1 ACP        -0.8008
     29 C2         -1.9837   -2.7784    3.1481 C.ar      1 ACP         0.6565
     30 N3         -1.7408   -1.5668    2.6022 N.ar      1 ACP        -0.7061
     31 C4         -2.5438   -1.3578    1.5483 C.ar      1 ACP         0.5715
     32 HOG3       -5.6913    1.1302   -3.8701 H         1 ACP         0.4226
     33 HOB2       -1.6561   -2.7457   -3.6909 H         1 ACP         0.4482
     34 H3B1       -3.9243   -1.7882   -6.7305 H         1 ACP         0.1012
     35 H3B2       -3.6767   -0.0460   -6.6546 H         1 ACP         0.1012
     36 H5'1       -0.6601    0.7877   -2.1202 H         1 ACP         0.0481
     37 H5'2        0.1042    2.3072   -2.6544 H         1 ACP         0.0481
     38 H4'        -1.1469    3.5409   -0.8522 H         1 ACP         0.0904
     39 H3'         1.1601    2.1310   -0.2934 H         1 ACP         0.0809
     40 HO3'        0.3098    3.9616    0.8017 H         1 ACP         0.4528
     41 H2'        -0.0024   -0.0091    0.0062 H         1 ACP         0.0594
     42 HO2'        0.0384   -0.3797    2.2403 H         1 ACP         0.4344
     43 H1'        -2.0584    1.4255    1.8301 H         1 ACP         0.1127
     44 H8         -3.8030    0.2355   -0.9657 H         1 ACP         0.1050
     45 HN61       -5.2130   -4.1372    0.4810 H         1 ACP         0.4211
     46 HN62       -4.7404   -5.2263    1.7576 H         1 ACP         0.4211
     47 H2         -1.3778   -3.0348    4.0107 H         1 ACP         0.0375
@<TRIPOS>BOND
     1    1    2 2
     2    1    3 1
     3    1    4 1
     4    1    8 1
     5    4   32 1
     6    5    6 2
     7    5    7 1
     8    5    8 1
     9    5   12 1
    10    7   33 1
    11    8   34 1
    12    8   35 1
    13    9   10 2
    14    9   11 1
    15    9   12 1
    16    9   13 1
    17   13   14 1
    18   14   15 1
    19   14   36 1
    20   14   37 1
    21   15   16 1
    22   15   17 1
    23   15   38 1
    24   16   21 1
    25   17   18 1
    26   17   19 1
    27   17   39 1
    28   18   40 1
    29   19   20 1
    30   19   21 1
    31   19   41 1
    32   20   42 1
    33   21   22 1
    34   21   43 1
    35   22   23 ar
    36   22   31 ar
    37   23   24 ar
    38   23   44 1
    39   24   25 ar
    40   25   26 ar
    41   25   31 ar
    42   26   27 1
    43   26   28 ar
    44   27   45 1
    45   27   46 1
    46   28   29 ar
    47   29   30 ar
    48   29   47 1
    49   30   31 ar
@<TRIPOS>SUBSTRUCTURE
     1 ACP         1 GROUP 0 A     ****
@<TRIPOS>MOLECULE
[[[5-(6-aminopurin-9-yl)-3,4-dihydroxy-tetrahydrofuran-2-yl]methoxy-oxido-phosphoryl]oxy-hydroxy-phosphoryl]methyl-hydroxy-phosphinate
   47    49     1     0     0
SMALL
USER_CHARGES

@<TRIPOS>ATOM
      1 PG         -6.0810    5.4228    1.6644 P.3       1 ACP         1.3516
      2 O1G        -6.5148    4.3357    0.7087 O.co2     1 ACP        -0.8379
      3 O2G        -7.0621    6.3915    2.2832 O.co2     1 ACP        -0.8379
      4 O3G        -5.1488    4.7745    2.8353 O.3       1 ACP        -0.7980
      5 PB         -3.4912    5.6947   -0.2258 P.3       1 ACP         1.7688
      6 O1B        -2.5347    6.6803   -0.8275 O.2       1 ACP        -0.9167
      7 O2B        -4.3137    4.8065   -1.2964 O.3       1 ACP        -0.8201
      8 C3B        -4.7803    6.4206    0.8090 C.3       1 ACP        -0.6097
      9 PA         -2.0038    4.7531    2.1525 P.3       1 ACP         1.5979
     10 O1A        -2.9393    5.2969    3.2104 O.co2     1 ACP        -0.8617
     11 O2A        -0.6860    5.4370    1.8604 O.co2     1 ACP        -0.8617
     12 O3A        -2.8410    4.5946    0.7605 O.3       1 ACP        -0.8283
     13 O5'        -1.7337    3.1724    2.4753 O.3       1 ACP        -0.5783
     14 C5'        -0.8811    2.4285    1.6206 C.3       1 ACP         0.1980
     15 C4'        -0.1994    1.3333    2.4288 C.3       1 ACP         0.0815
     16 O4'        -1.1285    0.2356    2.5840 O.3       1 ACP        -0.4127
     17 C3'         1.0324    0.7610    1.7344 C.3       1 ACP         0.0890
     18 O3'         1.9175    0.2377    2.7247 O.3       1 ACP        -0.6221
     19 C2'         0.4468   -0.3802    0.9263 C.3       1 ACP         0.1067
     20 O2'         1.3993   -1.3703    0.5961 O.3       1 ACP        -0.6053
     21 C1'        -0.6159   -0.9100    1.8769 C.3       1 ACP         0.4223
     22 N9         -1.7127   -1.6108    1.2130 N.pl3     1 ACP        -0.6834
     23 C8         -1.7712   -2.9546    0.9544 C.ar      1 ACP         0.5614
     24 N7         -2.8883   -3.2948    0.3462 N.2       1 ACP        -0.5751
     25 C5         -3.5834   -2.1202    0.2043 C.ar      1 ACP        -0.2117
     26 C6         -4.8225   -1.8251   -0.3554 C.ar      1 ACP         0.7177
     27 N6         -5.6154   -2.8395   -0.9189 N.pl3     1 ACP        -0.9401
     28 N1         -5.2589   -0.5425   -0.3507 N.ar      1 ACP        -0.8008
     29 C2         -4.4510    0.3913    0.2069 C.ar      1 ACP         0.6565
     30 N3         -3.2368    0.2296    0.7767 N.ar      1 ACP        -0.7061
     31 C4         -2.8684   -1.0596    0.7376 C.ar      1 ACP         0.5715
     32 HOG3       -5.5338    4.0764    3.4069 H         1 ACP         0.4226
     33 HOB2       -3.8177    4.2337   -1.9193 H         1 ACP         0.4482
     34 H3B1       -5.3163    7.1588    0.2017 H         1 ACP         0.1012
     35 H3B2       -4.2746    6.9710    1.6095 H         1 ACP         0.1012
     36 H5'1       -1.4802    1.9928    0.8147 H         1 ACP         0.0481
     37 H5'2       -0.1369    3.1042    1.1873 H         1 ACP         0.0481
     38 H4'         0.0403    1.7078    3.4343 H         1 ACP         0.0904
     39 H3'         1.5906    1.4859    1.1353 H         1 ACP         0.0809
     40 HO3'        2.6839   -0.1150    2.2479 H         1 ACP         0.4528
     41 H2'        -0.0017    0.0018    0.0005 H         1 ACP         0.0594
     42 HO2'        2.0953   -0.9375    0.0709 H         1 ACP         0.4344
     43 H1'        -0.1998   -1.6319    2.6178 H         1 ACP         0.1127
     44 H8         -0.9745   -3.6312    1.2318 H         1 ACP         0.1050
     45 HN61       -5.2619   -3.7766   -0.9586 H         1 ACP         0.4211
     46 HN62       -6.4834   -2.5990   -1.3590 H         1 ACP         0.4211
     47 H2         -4.8317    1.4071    0.1930 H         1 ACP         0.0375
@<TRIPOS>BOND
     1    1    2 2
     2    1    3 1
     3    1    4 1
     4    1    8 1
     5    4   32 1
     6    5    6 2
     7    5    7 1
     8    5    8 1
     9    5   12 1
    10    7   33 1
    11    8   34 1
    12    8   35 1
    13    9   10 2
    14    9   11 1
    15    9   12 1
    16    9   13 1
    17   13   14 1
    18   14   15 1
    19   14   36 1
    20   14   37 1
    21   15   16 1
    22   15   17 1
    23   15   38 1
    24   16   21 1
    25   17   18 1
    26   17   19 1
    27   17   39 1
    28   18   40 1
    29   19   20 1
    30   19   21 1
    31   19   41 1
    32   20   42 1
    33   21   22 1
    34   21   43 1
    35   22   23 ar
    36   22   31 ar
    37   23   24 ar
    38   23   44 1
    39   24   25 ar
    40   25   26 ar
    41   25   31 ar
    42   26   27 1
    43   26   28 ar
    44   27   45 1
    45   27   46 1
    46   28   29 ar
    47   29   30 ar
    48   29   47 1
    49   30   31 ar
@<TRIPOS>SUBSTRUCTURE
     1 ACP         1 GROUP 0 A     ****
@<TRIPOS>MOLECULE
[[[5-(6-aminopurin-9-yl)-3,4-dihydroxy-tetrahydrofuran-2-yl]methoxy-oxido-phosphoryl]oxy-hydroxy-phosphoryl]methyl-hydroxy-phosphinate
   47    49     1     0     0
SMALL
USER_CHARGES

@<TRIPOS>ATOM
      1 PG         -4.4208    4.3711   -0.5852 P.3       1 ACP         1.3516
      2 O1G        -4.4534    2.9904   -1.1984 O.co2     1 ACP        -0.8379
      3 O2G        -5.6637    5.2181   -0.4383 O.co2     1 ACP        -0.8379
      4 O3G        -3.6345    4.3113    0.8425 O.3       1 ACP        -0.7980
      5 PB         -1.6038    4.6990   -2.1056 P.3       1 ACP         1.7688
      6 O1B        -0.7433    5.6716   -2.8551 O.2       1 ACP        -0.9167
      7 O2B        -2.0246    3.3810   -2.9407 O.3       1 ACP        -0.8201
      8 C3B        -3.1811    5.3643   -1.5317 C.3       1 ACP        -0.6097
      9 PA         -0.4663    4.8326    0.6227 P.3       1 ACP         1.5979
     10 O1A        -1.6742    5.4170    1.3223 O.co2     1 ACP        -0.8617
     11 O2A         0.7364    5.6947    0.3068 O.co2     1 ACP        -0.8617
     12 O3A        -0.9709    4.1011   -0.7462 O.3       1 ACP        -0.8283
     13 O5'         0.0181    3.5132    1.4596 O.3       1 ACP        -0.5783
     14 C5'        -0.8811    2.4285    1.6206 C.3       1 ACP         0.1980
     15 C4'        -0.1994    1.3333    2.4288 C.3       1 ACP         0.0815
     16 O4'        -1.1285    0.2356    2.5840 O.3       1 ACP        -0.4127
     17 C3'         1.0324    0.7610    1.7344 C.3       1 ACP         0.0890
     18 O3'         1.9175    0.2377    2.7247 O.3       1 ACP        -0.6221
     19 C2'         0.4468   -0.3802    0.9263 C.3       1 ACP         0.1067
     20 O2'         1.3993   -1.3703    0.5961 O.3       1 ACP        -0.6053
     21 C1'        -0.6159   -0.9100    1.8769 C.3       1 ACP         0.4223
     22 N9         -1.7127   -1.6108    1.2130 N.pl3     1 ACP        -0.6834
     23 C8         -2.5476   -1.0844    0.2632 C.ar      1 ACP         0.5614
     24 N7         -3.4391   -1.9591   -0.1536 N.2       1 ACP        -0.5751
     25 C5         -3.1701   -3.1016    0.5574 C.ar      1 ACP        -0.2117
     26 C6         -3.7593   -4.3620    0.5656 C.ar      1 ACP         0.7177
     27 N6         -4.8512   -4.6493   -0.2712 N.pl3     1 ACP        -0.9401
     28 N1         -3.2659   -5.3144    1.3932 N.ar      1 ACP        -0.8008
     29 C2         -2.2122   -4.9785    2.1759 C.ar      1 ACP         0.6565
     30 N3         -1.5595   -3.7985    2.2572 N.ar      1 ACP        -0.7061
     31 C4         -2.0986   -2.9054    1.4140 C.ar      1 ACP         0.5715
     32 HOG3       -3.9907    3.7311    1.5487 H         1 ACP         0.4226
     33 HOB2       -1.3203    2.7888   -3.2802 H         1 ACP         0.4482
     34 H3B1       -3.7125    5.7575   -2.4058 H         1 ACP         0.1012
     35 H3B2       -2.9510    6.2184   -0.8859 H         1 ACP         0.1012
     36 H5'1       -1.7769    2.7851    2.1387 H         1 ACP         0.0481
     37 H5'2       -1.1653    2.0543    0.6320 H         1 ACP         0.0481
     38 H4'         0.0403    1.7078    3.4343 H         1 ACP         0.0904
     39 H3'         1.5906    1.4859    1.1353 H         1 ACP         0.0809
     40 HO3'        2.1521    0.9800    3.3017 H         1 ACP         0.4528
     41 H2'        -0.0017    0.0018    0.0005 H         1 ACP         0.0594
     42 HO2'        1.7495   -1.7243    1.4324 H         1 ACP         0.4344
     43 H1'        -0.1998   -1.6319    2.6178 H         1 ACP         0.1127
     44 H8         -2.4576   -0.0639   -0.0831 H         1 ACP         0.1050
     45 HN61       -5.2371   -3.9234   -0.8448 H         1 ACP         0.4211
     46 HN62       -5.2909   -5.5485   -0.2160 H         1 ACP         0.4211
     47 H2         -1.8433   -5.7650    2.8259 H         1 ACP         0.0375
@<TRIPOS>BOND
     1    1    2 2
     2    1    3 1
     3    1    4 1
     4    1    8 1
     5    4   32 1
     6    5    6 2
     7    5    7 1
     8    5    8 1
     9    5   12 1
    10    7   33 1
    11    8   34 1
    12    8   35 1
    13    9   10 2
    14    9   11 1
    15    9   12 1
    16    9   13 1
    17   13   14 1
    18   14   15 1
    19   14   36 1
    20   14   37 1
    21   15   16 1
    22   15   17 1
    23   15   38 1
    24   16   21 1
    25   17   18 1
    26   17   19 1
    27   17   39 1
    28   18   40 1
    29   19   20 1
    30   19   21 1
    31   19   41 1
    32   20   42 1
    33   21   22 1
    34   21   43 1
    35   22   23 ar
    36   22   31 ar
    37   23   24 ar
    38   23   44 1
    39   24   25 ar
    40   25   26 ar
    41   25   31 ar
    42   26   27 1
    43   26   28 ar
    44   27   45 1
    45   27   46 1
    46   28   29 ar
    47   29   30 ar
    48   29   47 1
    49   30   31 ar
@<TRIPOS>SUBSTRUCTURE
     1 ACP         1 GROUP 0 A     ****
@<TRIPOS>MOLECULE
[[[5-(6-aminopurin-9-yl)-3,4-dihydroxy-tetrahydrofuran-2-yl]methoxy-oxido-phosphoryl]oxy-hydroxy-phosphoryl]methyl-hydroxy-phosphinate
   47    49     1     0     0
SMALL
USER_CHARGES

@<TRIPOS>ATOM
      1 PG         -0.3161    2.5977   -3.2052 P.3       1 ACP         1.3516
      2 O1G        -0.3448    2.5257   -4.7142 O.co2     1 ACP        -0.8379
      3 O2G        -1.5688    2.7942   -2.3830 O.co2     1 ACP        -0.8379
      4 O3G         0.5232    1.3285   -2.6181 O.3       1 ACP        -0.7980
      5 PB          1.2343    4.3949   -1.0324 P.3       1 ACP         1.7688
      6 O1B         2.2242    5.5099   -0.8742 O.2       1 ACP        -0.9167
      7 O2B         1.6706    2.9974   -0.3480 O.3       1 ACP        -0.8201
      8 C3B         0.8686    3.9394   -2.7408 C.3       1 ACP        -0.6097
      9 PA         -0.7383    5.0057    1.0867 P.3       1 ACP         1.5979
     10 O1A        -2.2514    4.9889    1.1027 O.co2     1 ACP        -0.8617
     11 O2A         0.0270    6.2040    1.6044 O.co2     1 ACP        -0.8617
     12 O3A        -0.2379    4.6695   -0.4299 O.3       1 ACP        -0.8283
     13 O5'        -0.2060    3.6558    1.8418 O.3       1 ACP        -0.5783
     14 C5'        -0.8811    2.4285    1.6206 C.3       1 ACP         0.1980
     15 C4'        -0.1994    1.3333    2.4288 C.3       1 ACP         0.0815
     16 O4'        -1.1285    0.2356    2.5840 O.3       1 ACP        -0.4127
     17 C3'         1.0324    0.7610    1.7344 C.3       1 ACP         0.0890
     18 O3'         1.9175    0.2377    2.7247 O.3       1 ACP        -0.6221
     19 C2'         0.4468   -0.3802    0.9263 C.3       1 ACP         0.1067
     20 O2'         1.3993   -1.3703    0.5961 O.3       1 ACP        -0.6053
     21 C1'        -0.6159   -0.9100    1.8769 C.3       1 ACP         0.4223
     22 N9         -1.7127   -1.6108    1.2130 N.pl3     1 ACP        -0.6834
     23 C8         -1.7712   -2.9546    0.9544 C.ar      1 ACP         0.5614
     24 N7         -2.8883   -3.2948    0.3462 N.2       1 ACP        -0.5751
     25 C5         -3.5834   -2.1202    0.2043 C.ar      1 ACP        -0.2117
     26 C6         -4.8225   -1.8251   -0.3554 C.ar      1 ACP         0.7177
     27 N6         -5.6154   -2.8395   -0.9189 N.pl3     1 ACP        -0.9401
     28 N1         -5.2589   -0.5425   -0.3507 N.ar      1 ACP        -0.8008
     29 C2         -4.4510    0.3913    0.2069 C.ar      1 ACP         0.6565
     30 N3         -3.2368    0.2296    0.7767 N.ar      1 ACP        -0.7061
     31 C4         -2.8684   -1.0596    0.7376 C.ar      1 ACP         0.5715
     32 HOG3        0.2045    0.4231   -2.8204 H         1 ACP         0.4226
     33 HOB2        1.8319    2.9722    0.6192 H         1 ACP         0.4482
     34 H3B1        1.8177    3.6862   -3.2267 H         1 ACP         0.1012
     35 H3B2        0.4854    4.8383   -3.2355 H         1 ACP         0.1012
     36 H5'1       -1.9255    2.5382    1.9294 H         1 ACP         0.0481
     37 H5'2       -0.8473    2.1933    0.5521 H         1 ACP         0.0481
     38 H4'         0.0403    1.7078    3.4343 H         1 ACP         0.0904
     39 H3'         1.5906    1.4859    1.1353 H         1 ACP         0.0809
     40 HO3'        2.6839   -0.1150    2.2479 H         1 ACP         0.4528
     41 H2'        -0.0017    0.0018    0.0005 H         1 ACP         0.0594
     42 HO2'        2.0953   -0.9375    0.0709 H         1 ACP         0.4344
     43 H1'        -0.1998   -1.6319    2.6178 H         1 ACP         0.1127
     44 H8         -0.9745   -3.6312    1.2318 H         1 ACP         0.1050
     45 HN61       -5.2619   -3.7766   -0.9586 H         1 ACP         0.4211
     46 HN62       -6.4834   -2.5990   -1.3590 H         1 ACP         0.4211
     47 H2         -4.8317    1.4071    0.1930 H         1 ACP         0.0375
@<TRIPOS>BOND
     1    1    2 2
     2    1    3 1
     3    1    4 1
     4    1    8 1
     5    4   32 1
     6    5    6 2
     7    5    7 1
     8    5    8 1
     9    5   12 1
    10    7   33 1
    11    8   34 1
    12    8   35 1
    13    9   10 2
    14    9   11 1
    15    9   12 1
    16    9   13 1
    17   13   14 1
    18   14   15 1
    19   14   36 1
    20   14   37 1
    21   15   16 1
    22   15   17 1
    23   15   38 1
    24   16   21 1
    25   17   18 1
    26   17   19 1
    27   17   39 1
    28   18   40 1
    29   19   20 1
    30   19   21 1
    31   19   41 1
    32   20   42 1
    33   21   22 1
    34   21   43 1
    35   22   23 ar
    36   22   31 ar
    37   23   24 ar
    38   23   44 1
    39   24   25 ar
    40   25   26 ar
    41   25   31 ar
    42   26   27 1
    43   26   28 ar
    44   27   45 1
    45   27   46 1
    46   28   29 ar
    47   29   30 ar
    48   29   47 1
    49   30   31 ar
@<TRIPOS>SUBSTRUCTURE
     1 ACP         1 GROUP 0 A     ****
@<TRIPOS>MOLECULE
[[[5-(6-aminopurin-9-yl)-3,4-dihydroxy-tetrahydrofuran-2-yl]methoxy-oxido-phosphoryl]oxy-hydroxy-phosphoryl]methyl-hydroxy-phosphinate
   47    49     1     0     0
SMALL
USER_CHARGES

@<TRIPOS>ATOM
      1 PG         -4.5904    1.4851   -1.8655 P.3       1 ACP         1.3516
      2 O1G        -4.1147    0.1020   -1.4862 O.co2     1 ACP        -0.8379
      3 O2G        -3.6484    2.5497   -2.3785 O.co2     1 ACP        -0.8379
      4 O3G        -5.8675    1.3615   -2.8724 O.3       1 ACP        -0.7980
      5 PB         -4.6881    2.4325    1.2081 P.3       1 ACP         1.7688
      6 O1B        -4.1518    1.1870    1.8477 O.2       1 ACP        -0.9167
      7 O2B        -5.8148    3.2072    2.0696 O.3       1 ACP        -0.8201
      8 C3B        -5.4729    2.1849   -0.3990 C.3       1 ACP        -0.6097
      9 PA         -2.5929    4.4189    1.8558 P.3       1 ACP         1.5979
     10 O1A        -3.4090    5.0304    2.9738 O.co2     1 ACP        -0.8617
     11 O2A        -1.6852    5.2776    1.0023 O.co2     1 ACP        -0.8617
     12 O3A        -3.6015    3.5815    0.8837 O.3       1 ACP        -0.8283
     13 O5'        -1.7337    3.1724    2.4753 O.3       1 ACP        -0.5783
     14 C5'        -0.8811    2.4285    1.6206 C.3       1 ACP         0.1980
     15 C4'        -0.1994    1.3333    2.4288 C.3       1 ACP         0.0815
     16 O4'        -1.1285    0.2356    2.5840 O.3       1 ACP        -0.4127
     17 C3'         1.0324    0.7610    1.7344 C.3       1 ACP         0.0890
     18 O3'         1.9175    0.2377    2.7247 O.3       1 ACP        -0.6221
     19 C2'         0.4468   -0.3802    0.9263 C.3       1 ACP         0.1067
     20 O2'         1.3993   -1.3703    0.5961 O.3       1 ACP        -0.6053
     21 C1'        -0.6159   -0.9100    1.8769 C.3       1 ACP         0.4223
     22 N9         -1.7127   -1.6108    1.2130 N.pl3     1 ACP        -0.6834
     23 C8         -2.5476   -1.0844    0.2632 C.ar      1 ACP         0.5614
     24 N7         -3.4391   -1.9591   -0.1536 N.2       1 ACP        -0.5751
     25 C5         -3.1701   -3.1016    0.5574 C.ar      1 ACP        -0.2117
     26 C6         -3.7593   -4.3620    0.5656 C.ar      1 ACP         0.7177
     27 N6         -4.8512   -4.6493   -0.2712 N.pl3     1 ACP        -0.9401
     28 N1         -3.2659   -5.3144    1.3932 N.ar      1 ACP        -0.8008
     29 C2         -2.2122   -4.9785    2.1759 C.ar      1 ACP         0.6565
     30 N3         -1.5595   -3.7985    2.2572 N.ar      1 ACP        -0.7061
     31 C4         -2.0986   -2.9054    1.4140 C.ar      1 ACP         0.5715
     32 HOG3       -5.7464    0.8945   -3.7264 H         1 ACP         0.4226
     33 HOB2       -5.5851    3.5371    2.9644 H         1 ACP         0.4482
     34 H3B1       -5.8779    3.1505   -0.7223 H         1 ACP         0.1012
     35 H3B2       -6.3262    1.5175   -0.2379 H         1 ACP         0.1012
     36 H5'1       -1.4802    1.9928    0.8147 H         1 ACP         0.0481
     37 H5'2       -0.1369    3.1042    1.1873 H         1 ACP         0.0481
     38 H4'         0.0403    1.7078    3.4343 H         1 ACP         0.0904
     39 H3'         1.5906    1.4859    1.1353 H         1 ACP         0.0809
     40 HO3'        2.6839   -0.1150    2.2479 H         1 ACP         0.4528
     41 H2'        -0.0017    0.0018    0.0005 H         1 ACP         0.0594
     42 HO2'        2.0953   -0.9375    0.0709 H         1 ACP         0.4344
     43 H1'        -0.1998   -1.6319    2.6178 H         1 ACP         0.1127
     44 H8         -2.4576   -0.0639   -0.0831 H         1 ACP         0.1050
     45 HN61       -5.2371   -3.9234   -0.8448 H         1 ACP         0.4211
     46 HN62       -5.2909   -5.5485   -0.2160 H         1 ACP         0.4211
     47 H2         -1.8433   -5.7650    2.8259 H         1 ACP         0.0375
@<TRIPOS>BOND
     1    1    2 2
     2    1    3 1
     3    1    4 1
     4    1    8 1
     5    4   32 1
     6    5    6 2
     7    5    7 1
     8    5    8 1
     9    5   12 1
    10    7   33 1
    11    8   34 1
    12    8   35 1
    13    9   10 2
    14    9   11 1
    15    9   12 1
    16    9   13 1
    17   13   14 1
    18   14   15 1
    19   14   36 1
    20   14   37 1
    21   15   16 1
    22   15   17 1
    23   15   38 1
    24   16   21 1
    25   17   18 1
    26   17   19 1
    27   17   39 1
    28   18   40 1
    29   19   20 1
    30   19   21 1
    31   19   41 1
    32   20   42 1
    33   21   22 1
    34   21   43 1
    35   22   23 ar
    36   22   31 ar
    37   23   24 ar
    38   23   44 1
    39   24   25 ar
    40   25   26 ar
    41   25   31 ar
    42   26   27 1
    43   26   28 ar
    44   27   45 1
    45   27   46 1
    46   28   29 ar
    47   29   30 ar
    48   29   47 1
    49   30   31 ar
@<TRIPOS>SUBSTRUCTURE
     1 ACP         1 GROUP 0 A     ****
@<TRIPOS>MOLECULE
[[[5-(6-aminopurin-9-yl)-3,4-dihydroxy-tetrahydrofuran-2-yl]methoxy-oxido-phosphoryl]oxy-hydroxy-phosphoryl]methyl-hydroxy-phosphinate
   47    49     1     0     0
SMALL
USER_CHARGES

@<TRIPOS>ATOM
      1 PG         -0.0223    5.8449   -1.3391 P.3       1 ACP         1.3516
      2 O1G         1.3760    5.3055   -1.1458 O.co2     1 ACP        -0.8379
      3 O2G        -0.4569    6.5191   -2.6198 O.co2     1 ACP        -0.8379
      4 O3G        -1.1068    4.6948   -0.9378 O.3       1 ACP        -0.7980
      5 PB          0.1667    6.7235    1.7506 P.3       1 ACP         1.7688
      6 O1B        -0.2027    7.8038    2.7225 O.2       1 ACP        -0.9167
      7 O2B         1.7523    6.4392    1.6219 O.3       1 ACP        -0.8201
      8 C3B        -0.3547    7.0215    0.0480 C.3       1 ACP        -0.6097
      9 PA         -2.0038    4.7531    2.1525 P.3       1 ACP         1.5979
     10 O1A        -2.6311    4.8530    0.7790 O.co2     1 ACP        -0.8617
     11 O2A        -2.6593    5.4042    3.3509 O.co2     1 ACP        -0.8617
     12 O3A        -0.4577    5.2649    2.0483 O.3       1 ACP        -0.8283
     13 O5'        -1.7337    3.1724    2.4753 O.3       1 ACP        -0.5783
     14 C5'        -0.8811    2.4285    1.6206 C.3       1 ACP         0.1980
     15 C4'        -0.1994    1.3333    2.4288 C.3       1 ACP         0.0815
     16 O4'        -1.1285    0.2356    2.5840 O.3       1 ACP        -0.4127
     17 C3'         1.0324    0.7610    1.7344 C.3       1 ACP         0.0890
     18 O3'         1.9175    0.2377    2.7247 O.3       1 ACP        -0.6221
     19 C2'         0.4468   -0.3802    0.9263 C.3       1 ACP         0.1067
     20 O2'         1.3993   -1.3703    0.5961 O.3       1 ACP        -0.6053
     21 C1'        -0.6159   -0.9100    1.8769 C.3       1 ACP         0.4223
     22 N9         -1.7127   -1.6108    1.2130 N.pl3     1 ACP        -0.6834
     23 C8         -2.8641   -1.0399    0.7392 C.ar      1 ACP         0.5614
     24 N7         -3.6659   -1.9257    0.1858 N.2       1 ACP        -0.5751
     25 C5         -3.0053   -3.1223    0.3069 C.ar      1 ACP        -0.2117
     26 C6         -3.3321   -4.4178   -0.0813 C.ar      1 ACP         0.7177
     27 N6         -4.5476   -4.6866   -0.7335 N.pl3     1 ACP        -0.9401
     28 N1         -2.4608   -5.4225    0.1773 N.ar      1 ACP        -0.8008
     29 C2         -1.3053   -5.1020    0.8081 C.ar      1 ACP         0.6565
     30 N3         -0.8788   -3.8921    1.2315 N.ar      1 ACP        -0.7061
     31 C4         -1.7870   -2.9477    0.9438 C.ar      1 ACP         0.5715
     32 HOG3       -1.0940    3.8471   -1.4313 H         1 ACP         0.4226
     33 HOB2        2.2504    6.1565    2.4182 H         1 ACP         0.4482
     34 H3B1        0.0670    7.9837   -0.2641 H         1 ACP         0.1012
     35 H3B2       -1.4435    7.1392    0.0637 H         1 ACP         0.1012
     36 H5'1       -1.4802    1.9928    0.8147 H         1 ACP         0.0481
     37 H5'2       -0.1369    3.1042    1.1873 H         1 ACP         0.0481
     38 H4'         0.0403    1.7078    3.4343 H         1 ACP         0.0904
     39 H3'         1.5906    1.4859    1.1353 H         1 ACP         0.0809
     40 HO3'        2.1521    0.9800    3.3017 H         1 ACP         0.4528
     41 H2'        -0.0017    0.0018    0.0005 H         1 ACP         0.0594
     42 HO2'        0.9369   -2.0558    0.0825 H         1 ACP         0.4344
     43 H1'        -0.1998   -1.6319    2.6178 H         1 ACP         0.1127
     44 H8         -3.0609    0.0200    0.8250 H         1 ACP         0.1050
     45 HN61       -5.2046   -3.9433   -0.8775 H         1 ACP         0.4211
     46 HN62       -4.7849   -5.6332   -0.9625 H         1 ACP         0.4211
     47 H2         -0.6318   -5.9307    0.9993 H         1 ACP         0.0375
@<TRIPOS>BOND
     1    1    2 2
     2    1    3 1
     3    1    4 1
     4    1    8 1
     5    4   32 1
     6    5    6 2
     7    5    7 1
     8    5    8 1
     9    5   12 1
    10    7   33 1
    11    8   34 1
    12    8   35 1
    13    9   10 2
    14    9   11 1
    15    9   12 1
    16    9   13 1
    17   13   14 1
    18   14   15 1
    19   14   36 1
    20   14   37 1
    21   15   16 1
    22   15   17 1
    23   15   38 1
    24   16   21 1
    25   17   18 1
    26   17   19 1
    27   17   39 1
    28   18   40 1
    29   19   20 1
    30   19   21 1
    31   19   41 1
    32   20   42 1
    33   21   22 1
    34   21   43 1
    35   22   23 ar
    36   22   31 ar
    37   23   24 ar
    38   23   44 1
    39   24   25 ar
    40   25   26 ar
    41   25   31 ar
    42   26   27 1
    43   26   28 ar
    44   27   45 1
    45   27   46 1
    46   28   29 ar
    47   29   30 ar
    48   29   47 1
    49   30   31 ar
@<TRIPOS>SUBSTRUCTURE
     1 ACP         1 GROUP 0 A     ****
@<TRIPOS>MOLECULE
[[[5-(6-aminopurin-9-yl)-3,4-dihydroxy-tetrahydrofuran-2-yl]methoxy-oxido-phosphoryl]oxy-hydroxy-phosphoryl]methyl-hydroxy-phosphinate
   47    49     1     0     0
SMALL
USER_CHARGES

@<TRIPOS>ATOM
      1 PG         -0.0646    6.4062   -0.5427 P.3       1 ACP         1.3516
      2 O1G         1.3299    6.0752   -0.0639 O.co2     1 ACP        -0.8379
      3 O2G        -0.3170    7.2160   -1.7935 O.co2     1 ACP        -0.8379
      4 O3G        -0.9587    5.0430   -0.5909 O.3       1 ACP        -0.7980
      5 PB         -0.7773    6.7456    2.5767 P.3       1 ACP         1.7688
      6 O1B        -1.5713    7.5633    3.5509 O.2       1 ACP        -0.9167
      7 O2B         0.8189    6.7493    2.8295 O.3       1 ACP        -0.8201
      8 C3B        -0.9390    7.2503    0.8508 C.3       1 ACP        -0.6097
      9 PA         -2.5403    4.4097    2.1396 P.3       1 ACP         1.5979
     10 O1A        -2.8391    4.6469    0.6752 O.co2     1 ACP        -0.8617
     11 O2A        -3.5726    4.7244    3.2001 O.co2     1 ACP        -0.8617
     12 O3A        -1.1474    5.1757    2.5091 O.3       1 ACP        -0.8283
     13 O5'        -2.0402    2.8619    2.3131 O.3       1 ACP        -0.5783
     14 C5'        -0.8811    2.4285    1.6206 C.3       1 ACP         0.1980
     15 C4'        -0.1994    1.3333    2.4288 C.3       1 ACP         0.0815
     16 O4'        -1.1285    0.2356    2.5840 O.3       1 ACP        -0.4127
     17 C3'         1.0324    0.7610    1.7344 C.3       1 ACP         0.0890
     18 O3'         1.9175    0.2377    2.7247 O.3       1 ACP        -0.6221
     19 C2'         0.4468   -0.3802    0.9263 C.3       1 ACP         0.1067
     20 O2'         1.3993   -1.3703    0.5961 O.3       1 ACP        -0.6053
     21 C1'        -0.6159   -0.9100    1.8769 C.3       1 ACP         0.4223
     22 N9         -1.7127   -1.6108    1.2130 N.pl3     1 ACP        -0.6834
     23 C8         -1.7712   -2.9546    0.9544 C.ar      1 ACP         0.5614
     24 N7         -2.8883   -3.2948    0.3462 N.2       1 ACP        -0.5751
     25 C5         -3.5834   -2.1202    0.2043 C.ar      1 ACP        -0.2117
     26 C6         -4.8225   -1.8251   -0.3554 C.ar      1 ACP         0.7177
     27 N6         -5.6154   -2.8395   -0.9189 N.pl3     1 ACP        -0.9401
     28 N1         -5.2589   -0.5425   -0.3507 N.ar      1 ACP        -0.8008
     29 C2         -4.4510    0.3913    0.2069 C.ar      1 ACP         0.6565
     30 N3         -3.2368    0.2296    0.7767 N.ar      1 ACP        -0.7061
     31 C4         -2.8684   -1.0596    0.7376 C.ar      1 ACP         0.5715
     32 HOG3       -0.6617    4.3090   -1.1700 H         1 ACP         0.4226
     33 HOB2        1.1652    6.4153    3.6842 H         1 ACP         0.4482
     34 H3B1       -0.6587    8.3079    0.7872 H         1 ACP         0.1012
     35 H3B2       -2.0026    7.1852    0.5976 H         1 ACP         0.1012
     36 H5'1       -1.1770    2.0503    0.6369 H         1 ACP         0.0481
     37 H5'2       -0.2082    3.2815    1.4877 H         1 ACP         0.0481
     38 H4'         0.0403    1.7078    3.4343 H         1 ACP         0.0904
     39 H3'         1.5906    1.4859    1.1353 H         1 ACP         0.0809
     40 HO3'        2.6839   -0.1150    2.2479 H         1 ACP         0.4528
     41 H2'        -0.0017    0.0018    0.0005 H         1 ACP         0.0594
     42 HO2'        1.7495   -1.7243    1.4324 H         1 ACP         0.4344
     43 H1'        -0.1998   -1.6319    2.6178 H         1 ACP         0.1127
     44 H8         -0.9745   -3.6312    1.2318 H         1 ACP         0.1050
     45 HN61       -5.2619   -3.7766   -0.9586 H         1 ACP         0.4211
     46 HN62       -6.4834   -2.5990   -1.3590 H         1 ACP         0.4211
     47 H2         -4.8317    1.4071    0.1930 H         1 ACP         0.0375
@<TRIPOS>BOND
     1    1    2 2
     2    1    3 1
     3    1    4 1
     4    1    8 1
     5    4   32 1
     6    5    6 2
     7    5    7 1
     8    5    8 1
     9    5   12 1
    10    7   33 1
    11    8   34 1
    12    8   35 1
    13    9   10 2
    14    9   11 1
    15    9   12 1
    16    9   13 1
    17   13   14 1
    18   14   15 1
    19   14   36 1
    20   14   37 1
    21   15   16 1
    22   15   17 1
    23   15   38 1
    24   16   21 1
    25   17   18 1
    26   17   19 1
    27   17   39 1
    28   18   40 1
    29   19   20 1
    30   19   21 1
    31   19   41 1
    32   20   42 1
    33   21   22 1
    34   21   43 1
    35   22   23 ar
    36   22   31 ar
    37   23   24 ar
    38   23   44 1
    39   24   25 ar
    40   25   26 ar
    41   25   31 ar
    42   26   27 1
    43   26   28 ar
    44   27   45 1
    45   27   46 1
    46   28   29 ar
    47   29   30 ar
    48   29   47 1
    49   30   31 ar
@<TRIPOS>SUBSTRUCTURE
     1 ACP         1 GROUP 0 A     ****
@<TRIPOS>MOLECULE
[[[5-(6-aminopurin-9-yl)-3,4-dihydroxy-tetrahydrofuran-2-yl]methoxy-oxido-phosphoryl]oxy-hydroxy-phosphoryl]methyl-hydroxy-phosphinate
   47    49     1     0     0
SMALL
USER_CHARGES

@<TRIPOS>ATOM
      1 PG         -1.6894    7.9205    3.8990 P.3       1 ACP         1.3516
      2 O1G        -2.5465    7.1875    4.9047 O.co2     1 ACP        -0.8379
      3 O2G        -1.2865    9.3653    4.0834 O.co2     1 ACP        -0.8379
      4 O3G        -0.3663    7.0283    3.5623 O.3       1 ACP        -0.7980
      5 PB         -3.3426    6.2792    1.6793 P.3       1 ACP         1.7688
      6 O1B        -3.9628    6.3796    0.3179 O.2       1 ACP        -0.9167
      7 O2B        -4.3739    5.9192    2.8703 O.3       1 ACP        -0.8201
      8 C3B        -2.5290    7.7838    2.2572 C.3       1 ACP        -0.6097
      9 PA         -0.7383    5.0057    1.0867 P.3       1 ACP         1.5979
     10 O1A         0.1534    6.1575    1.4965 O.co2     1 ACP        -0.8617
     11 O2A        -0.9823    4.6989   -0.3748 O.co2     1 ACP        -0.8617
     12 O3A        -2.1752    5.1761    1.8416 O.3       1 ACP        -0.8283
     13 O5'        -0.2060    3.6558    1.8418 O.3       1 ACP        -0.5783
     14 C5'        -0.8811    2.4285    1.6206 C.3       1 ACP         0.1980
     15 C4'        -0.1994    1.3333    2.4288 C.3       1 ACP         0.0815
     16 O4'        -1.1285    0.2356    2.5840 O.3       1 ACP        -0.4127
     17 C3'         1.0324    0.7610    1.7344 C.3       1 ACP         0.0890
     18 O3'         1.9175    0.2377    2.7247 O.3       1 ACP        -0.6221
     19 C2'         0.4468   -0.3802    0.9263 C.3       1 ACP         0.1067
     20 O2'         1.3993   -1.3703    0.5961 O.3       1 ACP        -0.6053
     21 C1'        -0.6159   -0.9100    1.8769 C.3       1 ACP         0.4223
     22 N9         -1.7127   -1.6108    1.2130 N.pl3     1 ACP        -0.6834
     23 C8         -2.5476   -1.0844    0.2632 C.ar      1 ACP         0.5614
     24 N7         -3.4391   -1.9591   -0.1536 N.2       1 ACP        -0.5751
     25 C5         -3.1701   -3.1016    0.5574 C.ar      1 ACP        -0.2117
     26 C6         -3.7593   -4.3620    0.5656 C.ar      1 ACP         0.7177
     27 N6         -4.8512   -4.6493   -0.2712 N.pl3     1 ACP        -0.9401
     28 N1         -3.2659   -5.3144    1.3932 N.ar      1 ACP        -0.8008
     29 C2         -2.2122   -4.9785    2.1759 C.ar      1 ACP         0.6565
     30 N3         -1.5595   -3.7985    2.2572 N.ar      1 ACP        -0.7061
     31 C4         -2.0986   -2.9054    1.4140 C.ar      1 ACP         0.5715
     32 HOG3        0.2446    6.8024    4.2958 H         1 ACP         0.4226
     33 HOB2       -4.8742    5.0766    2.8270 H         1 ACP         0.4482
     34 H3B1       -3.2680    8.5925    2.2273 H         1 ACP         0.1012
     35 H3B2       -1.7548    8.0301    1.5227 H         1 ACP         0.1012
     36 H5'1       -1.9255    2.5382    1.9294 H         1 ACP         0.0481
     37 H5'2       -0.8473    2.1933    0.5521 H         1 ACP         0.0481
     38 H4'         0.0403    1.7078    3.4343 H         1 ACP         0.0904
     39 H3'         1.5906    1.4859    1.1353 H         1 ACP         0.0809
     40 HO3'        2.6839   -0.1150    2.2479 H         1 ACP         0.4528
     41 H2'        -0.0017    0.0018    0.0005 H         1 ACP         0.0594
     42 HO2'        2.0953   -0.9375    0.0709 H         1 ACP         0.4344
     43 H1'        -0.1998   -1.6319    2.6178 H         1 ACP         0.1127
     44 H8         -2.4576   -0.0639   -0.0831 H         1 ACP         0.1050
     45 HN61       -5.2371   -3.9234   -0.8448 H         1 ACP         0.4211
     46 HN62       -5.2909   -5.5485   -0.2160 H         1 ACP         0.4211
     47 H2         -1.8433   -5.7650    2.8259 H         1 ACP         0.0375
@<TRIPOS>BOND
     1    1    2 2
     2    1    3 1
     3    1    4 1
     4    1    8 1
     5    4   32 1
     6    5    6 2
     7    5    7 1
     8    5    8 1
     9    5   12 1
    10    7   33 1
    11    8   34 1
    12    8   35 1
    13    9   10 2
    14    9   11 1
    15    9   12 1
    16    9   13 1
    17   13   14 1
    18   14   15 1
    19   14   36 1
    20   14   37 1
    21   15   16 1
    22   15   17 1
    23   15   38 1
    24   16   21 1
    25   17   18 1
    26   17   19 1
    27   17   39 1
    28   18   40 1
    29   19   20 1
    30   19   21 1
    31   19   41 1
    32   20   42 1
    33   21   22 1
    34   21   43 1
    35   22   23 ar
    36   22   31 ar
    37   23   24 ar
    38   23   44 1
    39   24   25 ar
    40   25   26 ar
    41   25   31 ar
    42   26   27 1
    43   26   28 ar
    44   27   45 1
    45   27   46 1
    46   28   29 ar
    47   29   30 ar
    48   29   47 1
    49   30   31 ar
@<TRIPOS>SUBSTRUCTURE
     1 ACP         1 GROUP 0 A     ****
@<TRIPOS>MOLECULE
[[[5-(6-aminopurin-9-yl)-3,4-dihydroxy-tetrahydrofuran-2-yl]methoxy-oxido-phosphoryl]oxy-hydroxy-phosphoryl]methyl-hydroxy-phosphinate
   47    49     1     0     0
SMALL
USER_CHARGES

@<TRIPOS>ATOM
      1 PG         -1.6894    7.9205    3.8990 P.3       1 ACP         1.3516
      2 O1G        -2.5465    7.1875    4.9047 O.co2     1 ACP        -0.8379
      3 O2G        -1.2865    9.3653    4.0834 O.co2     1 ACP        -0.8379
      4 O3G        -0.3663    7.0283    3.5623 O.3       1 ACP        -0.7980
      5 PB         -3.3426    6.2792    1.6793 P.3       1 ACP         1.7688
      6 O1B        -3.9628    6.3796    0.3179 O.2       1 ACP        -0.9167
      7 O2B        -4.3739    5.9192    2.8703 O.3       1 ACP        -0.8201
      8 C3B        -2.5290    7.7838    2.2572 C.3       1 ACP        -0.6097
      9 PA         -0.7383    5.0057    1.0867 P.3       1 ACP         1.5979
     10 O1A         0.1534    6.1575    1.4965 O.co2     1 ACP        -0.8617
     11 O2A        -0.9823    4.6989   -0.3748 O.co2     1 ACP        -0.8617
     12 O3A        -2.1752    5.1761    1.8416 O.3       1 ACP        -0.8283
     13 O5'        -0.2060    3.6558    1.8418 O.3       1 ACP        -0.5783
     14 C5'        -0.8811    2.4285    1.6206 C.3       1 ACP         0.1980
     15 C4'        -0.1994    1.3333    2.4288 C.3       1 ACP         0.0815
     16 O4'        -1.1285    0.2356    2.5840 O.3       1 ACP        -0.4127
     17 C3'         1.0324    0.7610    1.7344 C.3       1 ACP         0.0890
     18 O3'         1.9175    0.2377    2.7247 O.3       1 ACP        -0.6221
     19 C2'         0.4468   -0.3802    0.9263 C.3       1 ACP         0.1067
     20 O2'         1.3993   -1.3703    0.5961 O.3       1 ACP        -0.6053
     21 C1'        -0.6159   -0.9100    1.8769 C.3       1 ACP         0.4223
     22 N9         -1.7127   -1.6108    1.2130 N.pl3     1 ACP        -0.6834
     23 C8         -2.0877   -2.9101    1.4304 C.ar      1 ACP         0.5614
     24 N7         -3.1152   -3.2613    0.6857 N.2       1 ACP        -0.5751
     25 C5         -3.4186   -2.1409   -0.0462 C.ar      1 ACP        -0.2117
     26 C6         -4.3953   -1.8809   -1.0023 C.ar      1 ACP         0.7177
     27 N6         -5.3118   -2.8767   -1.3812 N.pl3     1 ACP        -0.9401
     28 N1         -4.4538   -0.6507   -1.5667 N.ar      1 ACP        -0.8008
     29 C2         -3.5442    0.2679   -1.1609 C.ar      1 ACP         0.6565
     30 N3         -2.5561    0.1361   -0.2491 N.ar      1 ACP        -0.7061
     31 C4         -2.5568   -1.1019    0.2674 C.ar      1 ACP         0.5715
     32 HOG3        0.2446    6.8024    4.2958 H         1 ACP         0.4226
     33 HOB2       -4.8742    5.0766    2.8270 H         1 ACP         0.4482
     34 H3B1       -3.2680    8.5925    2.2273 H         1 ACP         0.1012
     35 H3B2       -1.7548    8.0301    1.5227 H         1 ACP         0.1012
     36 H5'1       -1.9255    2.5382    1.9294 H         1 ACP         0.0481
     37 H5'2       -0.8473    2.1933    0.5521 H         1 ACP         0.0481
     38 H4'         0.0403    1.7078    3.4343 H         1 ACP         0.0904
     39 H3'         1.5906    1.4859    1.1353 H         1 ACP         0.0809
     40 HO3'        2.1521    0.9800    3.3017 H         1 ACP         0.4528
     41 H2'        -0.0017    0.0018    0.0005 H         1 ACP         0.0594
     42 HO2'        0.9369   -2.0558    0.0825 H         1 ACP         0.4344
     43 H1'        -0.1998   -1.6319    2.6178 H         1 ACP         0.1127
     44 H8         -1.5778   -3.5473    2.1399 H         1 ACP         0.1050
     45 HN61       -5.2294   -3.7965   -0.9914 H         1 ACP         0.4211
     46 HN62       -5.9774   -2.6837   -2.1055 H         1 ACP         0.4211
     47 H2         -3.6201    1.2414   -1.6336 H         1 ACP         0.0375
@<TRIPOS>BOND
     1    1    2 2
     2    1    3 1
     3    1    4 1
     4    1    8 1
     5    4   32 1
     6    5    6 2
     7    5    7 1
     8    5    8 1
     9    5   12 1
    10    7   33 1
    11    8   34 1
    12    8   35 1
    13    9   10 2
    14    9   11 1
    15    9   12 1
    16    9   13 1
    17   13   14 1
    18   14   15 1
    19   14   36 1
    20   14   37 1
    21   15   16 1
    22   15   17 1
    23   15   38 1
    24   16   21 1
    25   17   18 1
    26   17   19 1
    27   17   39 1
    28   18   40 1
    29   19   20 1
    30   19   21 1
    31   19   41 1
    32   20   42 1
    33   21   22 1
    34   21   43 1
    35   22   23 ar
    36   22   31 ar
    37   23   24 ar
    38   23   44 1
    39   24   25 ar
    40   25   26 ar
    41   25   31 ar
    42   26   27 1
    43   26   28 ar
    44   27   45 1
    45   27   46 1
    46   28   29 ar
    47   29   30 ar
    48   29   47 1
    49   30   31 ar
@<TRIPOS>SUBSTRUCTURE
     1 ACP         1 GROUP 0 A     ****
@<TRIPOS>MOLECULE
[[[5-(6-aminopurin-9-yl)-3,4-dihydroxy-tetrahydrofuran-2-yl]methoxy-oxido-phosphoryl]oxy-hydroxy-phosphoryl]methyl-hydroxy-phosphinate
   47    49     1     0     0
SMALL
USER_CHARGES

@<TRIPOS>ATOM
      1 PG         -6.6557    3.7998    2.5038 P.3       1 ACP         1.3516
      2 O1G        -5.4812    3.4401    3.3838 O.co2     1 ACP        -0.8379
      3 O2G        -7.6090    2.7582    1.9653 O.co2     1 ACP        -0.8379
      4 O3G        -7.5069    5.0034    3.2017 O.3       1 ACP        -0.7980
      5 PB         -4.7850    4.0680   -0.1005 P.3       1 ACP         1.7688
      6 O1B        -4.3775    4.9993   -1.2027 O.2       1 ACP        -0.9167
      7 O2B        -5.4607    2.6857   -0.5947 O.3       1 ACP        -0.8201
      8 C3B        -5.9920    4.7443    1.0594 C.3       1 ACP        -0.6097
      9 PA         -2.5929    4.4189    1.8558 P.3       1 ACP         1.5979
     10 O1A        -3.4090    5.0304    2.9738 O.co2     1 ACP        -0.8617
     11 O2A        -1.6852    5.2776    1.0023 O.co2     1 ACP        -0.8617
     12 O3A        -3.6015    3.5815    0.8837 O.3       1 ACP        -0.8283
     13 O5'        -1.7337    3.1724    2.4753 O.3       1 ACP        -0.5783
     14 C5'        -0.8811    2.4285    1.6206 C.3       1 ACP         0.1980
     15 C4'        -0.1994    1.3333    2.4288 C.3       1 ACP         0.0815
     16 O4'        -1.1285    0.2356    2.5840 O.3       1 ACP        -0.4127
     17 C3'         1.0324    0.7610    1.7344 C.3       1 ACP         0.0890
     18 O3'         1.9175    0.2377    2.7247 O.3       1 ACP        -0.6221
     19 C2'         0.4468   -0.3802    0.9263 C.3       1 ACP         0.1067
     20 O2'         1.3993   -1.3703    0.5961 O.3       1 ACP        -0.6053
     21 C1'        -0.6159   -0.9100    1.8769 C.3       1 ACP         0.4223
     22 N9         -1.7127   -1.6108    1.2130 N.pl3     1 ACP        -0.6834
     23 C8         -2.0877   -2.9101    1.4304 C.ar      1 ACP         0.5614
     24 N7         -3.1152   -3.2613    0.6857 N.2       1 ACP        -0.5751
     25 C5         -3.4186   -2.1409   -0.0462 C.ar      1 ACP        -0.2117
     26 C6         -4.3953   -1.8809   -1.0023 C.ar      1 ACP         0.7177
     27 N6         -5.3118   -2.8767   -1.3812 N.pl3     1 ACP        -0.9401
     28 N1         -4.4538   -0.6507   -1.5667 N.ar      1 ACP        -0.8008
     29 C2         -3.5442    0.2679   -1.1609 C.ar      1 ACP         0.6565
     30 N3         -2.5561    0.1361   -0.2491 N.ar      1 ACP        -0.7061
     31 C4         -2.5568   -1.1019    0.2674 C.ar      1 ACP         0.5715
     32 HOG3       -7.8958    4.8479    4.0887 H         1 ACP         0.4226
     33 HOB2       -4.9434    2.0834   -1.1706 H         1 ACP         0.4482
     34 H3B1       -6.8656    5.0637    0.4798 H         1 ACP         0.1012
     35 H3B2       -5.5475    5.6469    1.4922 H         1 ACP         0.1012
     36 H5'1       -1.4802    1.9928    0.8147 H         1 ACP         0.0481
     37 H5'2       -0.1369    3.1042    1.1873 H         1 ACP         0.0481
     38 H4'         0.0403    1.7078    3.4343 H         1 ACP         0.0904
     39 H3'         1.5906    1.4859    1.1353 H         1 ACP         0.0809
     40 HO3'        2.6839   -0.1150    2.2479 H         1 ACP         0.4528
     41 H2'        -0.0017    0.0018    0.0005 H         1 ACP         0.0594
     42 HO2'        2.0953   -0.9375    0.0709 H         1 ACP         0.4344
     43 H1'        -0.1998   -1.6319    2.6178 H         1 ACP         0.1127
     44 H8         -1.5778   -3.5473    2.1399 H         1 ACP         0.1050
     45 HN61       -5.2294   -3.7965   -0.9914 H         1 ACP         0.4211
     46 HN62       -5.9774   -2.6837   -2.1055 H         1 ACP         0.4211
     47 H2         -3.6201    1.2414   -1.6336 H         1 ACP         0.0375
@<TRIPOS>BOND
     1    1    2 2
     2    1    3 1
     3    1    4 1
     4    1    8 1
     5    4   32 1
     6    5    6 2
     7    5    7 1
     8    5    8 1
     9    5   12 1
    10    7   33 1
    11    8   34 1
    12    8   35 1
    13    9   10 2
    14    9   11 1
    15    9   12 1
    16    9   13 1
    17   13   14 1
    18   14   15 1
    19   14   36 1
    20   14   37 1
    21   15   16 1
    22   15   17 1
    23   15   38 1
    24   16   21 1
    25   17   18 1
    26   17   19 1
    27   17   39 1
    28   18   40 1
    29   19   20 1
    30   19   21 1
    31   19   41 1
    32   20   42 1
    33   21   22 1
    34   21   43 1
    35   22   23 ar
    36   22   31 ar
    37   23   24 ar
    38   23   44 1
    39   24   25 ar
    40   25   26 ar
    41   25   31 ar
    42   26   27 1
    43   26   28 ar
    44   27   45 1
    45   27   46 1
    46   28   29 ar
    47   29   30 ar
    48   29   47 1
    49   30   31 ar
@<TRIPOS>SUBSTRUCTURE
     1 ACP         1 GROUP 0 A     ****
@<TRIPOS>MOLECULE
[[[5-(6-aminopurin-9-yl)-3,4-dihydroxy-tetrahydrofuran-2-yl]methoxy-oxido-phosphoryl]oxy-hydroxy-phosphoryl]methyl-hydroxy-phosphinate
   47    49     1     0     0
SMALL
USER_CHARGES

@<TRIPOS>ATOM
      1 PG          3.6511   -1.6287   -4.9519 P.3       1 ACP         1.3516
      2 O1G         2.4515   -1.5225   -5.8645 O.co2     1 ACP        -0.8379
      3 O2G         4.2328   -2.9600   -4.5359 O.co2     1 ACP        -0.8379
      4 O3G         4.8442   -0.6677   -5.5114 O.3       1 ACP        -0.7980
      5 PB          2.8617    1.0719   -3.3906 P.3       1 ACP         1.7688
      6 O1B         3.9443    1.9651   -3.9184 O.2       1 ACP        -0.9167
      7 O2B         2.4359    1.3542   -1.8574 O.3       1 ACP        -0.8201
      8 C3B         3.2534   -0.6905   -3.4090 C.3       1 ACP        -0.6097
      9 PA          0.4196    2.3431   -4.4748 P.3       1 ACP         1.5979
     10 O1A        -0.8226    1.7708   -5.1225 O.co2     1 ACP        -0.8617
     11 O2A         1.1708    3.4871   -5.1201 O.co2     1 ACP        -0.8617
     12 O3A         1.4593    1.1180   -4.1888 O.3       1 ACP        -0.8283
     13 O5'         0.0525    2.7389   -2.9307 O.3       1 ACP        -0.5783
     14 C5'        -0.7794    1.8744   -2.1748 C.3       1 ACP         0.1980
     15 C4'        -0.9699    2.4597   -0.7819 C.3       1 ACP         0.0815
     16 O4'        -2.1475    1.8640   -0.2014 O.3       1 ACP        -0.4127
     17 C3'         0.1697    2.1347    0.1695 C.3       1 ACP         0.0890
     18 O3'         0.1809    3.0982    1.2223 O.3       1 ACP        -0.6221
     19 C2'        -0.2543    0.7880    0.7187 C.3       1 ACP         0.1067
     20 O2'         0.3606    0.4944    1.9582 O.3       1 ACP        -0.6053
     21 C1'        -1.7682    0.9516    0.8548 C.3       1 ACP         0.4223
     22 N9         -2.5926   -0.2553    0.7436 N.pl3     1 ACP        -0.6834
     23 C8         -3.4452   -0.7398    1.6998 C.ar      1 ACP         0.5614
     24 N7         -4.0528   -1.8413    1.3109 N.2       1 ACP        -0.5751
     25 C5         -3.5725   -2.0808    0.0480 C.ar      1 ACP        -0.2117
     26 C6         -3.8302   -3.0862   -0.8786 C.ar      1 ACP         0.7177
     27 N6         -4.7399   -4.1165   -0.5855 N.pl3     1 ACP        -0.9401
     28 N1         -3.1915   -3.0606   -2.0731 N.ar      1 ACP        -0.8008
     29 C2         -2.3264   -2.0424   -2.2985 C.ar      1 ACP         0.6565
     30 N3         -1.9948   -1.0167   -1.4843 N.ar      1 ACP        -0.7061
     31 C4         -2.6619   -1.1046   -0.3238 C.ar      1 ACP         0.5715
     32 HOG3        5.1972   -0.8359   -6.4110 H         1 ACP         0.4226
     33 HOB2        2.0866    2.2385   -1.6165 H         1 ACP         0.4482
     34 H3B1        2.4170   -1.2207   -2.9398 H         1 ACP         0.1012
     35 H3B2        4.1252   -0.8302   -2.7608 H         1 ACP         0.1012
     36 H5'1       -1.7435    1.7763   -2.6838 H         1 ACP         0.0481
     37 H5'2       -0.3053    0.8897   -2.1148 H         1 ACP         0.0481
     38 H4'        -1.1469    3.5409   -0.8522 H         1 ACP         0.0904
     39 H3'         1.1601    2.1310   -0.2934 H         1 ACP         0.0809
     40 HO3'        0.9173    2.8584    1.8048 H         1 ACP         0.4528
     41 H2'        -0.0024   -0.0091    0.0062 H         1 ACP         0.0594
     42 HO2'        0.0384   -0.3797    2.2403 H         1 ACP         0.4344
     43 H1'        -2.0584    1.4255    1.8301 H         1 ACP         0.1127
     44 H8         -3.5812   -0.2495    2.6541 H         1 ACP         0.1050
     45 HN61       -5.1710   -4.1509    0.3189 H         1 ACP         0.4211
     46 HN62       -4.8760   -4.8567   -1.2476 H         1 ACP         0.4211
     47 H2         -1.8328   -2.0536   -3.2645 H         1 ACP         0.0375
@<TRIPOS>BOND
     1    1    2 2
     2    1    3 1
     3    1    4 1
     4    1    8 1
     5    4   32 1
     6    5    6 2
     7    5    7 1
     8    5    8 1
     9    5   12 1
    10    7   33 1
    11    8   34 1
    12    8   35 1
    13    9   10 2
    14    9   11 1
    15    9   12 1
    16    9   13 1
    17   13   14 1
    18   14   15 1
    19   14   36 1
    20   14   37 1
    21   15   16 1
    22   15   17 1
    23   15   38 1
    24   16   21 1
    25   17   18 1
    26   17   19 1
    27   17   39 1
    28   18   40 1
    29   19   20 1
    30   19   21 1
    31   19   41 1
    32   20   42 1
    33   21   22 1
    34   21   43 1
    35   22   23 ar
    36   22   31 ar
    37   23   24 ar
    38   23   44 1
    39   24   25 ar
    40   25   26 ar
    41   25   31 ar
    42   26   27 1
    43   26   28 ar
    44   27   45 1
    45   27   46 1
    46   28   29 ar
    47   29   30 ar
    48   29   47 1
    49   30   31 ar
@<TRIPOS>SUBSTRUCTURE
     1 ACP         1 GROUP 0 A     ****
@<TRIPOS>MOLECULE
[[[5-(6-aminopurin-9-yl)-3,4-dihydroxy-tetrahydrofuran-2-yl]methoxy-oxido-phosphoryl]oxy-hydroxy-phosphoryl]methyl-hydroxy-phosphinate
   47    49     1     0     0
SMALL
USER_CHARGES

@<TRIPOS>ATOM
      1 PG          3.6511   -1.6287   -4.9519 P.3       1 ACP         1.3516
      2 O1G         2.4515   -1.5225   -5.8645 O.co2     1 ACP        -0.8379
      3 O2G         4.2328   -2.9600   -4.5359 O.co2     1 ACP        -0.8379
      4 O3G         4.8442   -0.6677   -5.5114 O.3       1 ACP        -0.7980
      5 PB          2.8617    1.0719   -3.3906 P.3       1 ACP         1.7688
      6 O1B         3.9443    1.9651   -3.9184 O.2       1 ACP        -0.9167
      7 O2B         2.4359    1.3542   -1.8574 O.3       1 ACP        -0.8201
      8 C3B         3.2534   -0.6905   -3.4090 C.3       1 ACP        -0.6097
      9 PA          0.4196    2.3431   -4.4748 P.3       1 ACP         1.5979
     10 O1A        -0.8226    1.7708   -5.1225 O.co2     1 ACP        -0.8617
     11 O2A         1.1708    3.4871   -5.1201 O.co2     1 ACP        -0.8617
     12 O3A         1.4593    1.1180   -4.1888 O.3       1 ACP        -0.8283
     13 O5'         0.0525    2.7389   -2.9307 O.3       1 ACP        -0.5783
     14 C5'        -0.7794    1.8744   -2.1748 C.3       1 ACP         0.1980
     15 C4'        -0.9699    2.4597   -0.7819 C.3       1 ACP         0.0815
     16 O4'        -2.1475    1.8640   -0.2014 O.3       1 ACP        -0.4127
     17 C3'         0.1697    2.1347    0.1695 C.3       1 ACP         0.0890
     18 O3'         0.1809    3.0982    1.2223 O.3       1 ACP        -0.6221
     19 C2'        -0.2543    0.7880    0.7187 C.3       1 ACP         0.1067
     20 O2'         0.3606    0.4944    1.9582 O.3       1 ACP        -0.6053
     21 C1'        -1.7682    0.9516    0.8548 C.3       1 ACP         0.4223
     22 N9         -2.5926   -0.2553    0.7436 N.pl3     1 ACP        -0.6834
     23 C8         -3.1120   -0.7726   -0.4135 C.ar      1 ACP         0.5614
     24 N7         -3.8089   -1.8688   -0.1980 N.2       1 ACP        -0.5751
     25 C5         -3.7380   -2.0700    1.1576 C.ar      1 ACP        -0.2117
     26 C6         -4.2662   -3.0526    1.9890 C.ar      1 ACP         0.7177
     27 N6         -5.0420   -4.0987    1.4609 N.pl3     1 ACP        -0.9401
     28 N1         -4.0226   -2.9899    3.3202 N.ar      1 ACP        -0.8008
     29 C2         -3.2679   -1.9585    3.7704 C.ar      1 ACP         0.6565
     30 N3         -2.7045   -0.9514    3.0680 N.ar      1 ACP        -0.7061
     31 C4         -2.9852   -1.0761    1.7622 C.ar      1 ACP         0.5715
     32 HOG3        5.1972   -0.8359   -6.4110 H         1 ACP         0.4226
     33 HOB2        2.0866    2.2385   -1.6165 H         1 ACP         0.4482
     34 H3B1        2.4170   -1.2207   -2.9398 H         1 ACP         0.1012
     35 H3B2        4.1252   -0.8302   -2.7608 H         1 ACP         0.1012
     36 H5'1       -1.7435    1.7763   -2.6838 H         1 ACP         0.0481
     37 H5'2       -0.3053    0.8897   -2.1148 H         1 ACP         0.0481
     38 H4'        -1.1469    3.5409   -0.8522 H         1 ACP         0.0904
     39 H3'         1.1601    2.1310   -0.2934 H         1 ACP         0.0809
     40 HO3'        0.9173    2.8584    1.8048 H         1 ACP         0.4528
     41 H2'        -0.0024   -0.0091    0.0062 H         1 ACP         0.0594
     42 HO2'        0.0384   -0.3797    2.2403 H         1 ACP         0.4344
     43 H1'        -2.0584    1.4255    1.8301 H         1 ACP         0.1127
     44 H8         -2.9491   -0.3098   -1.3772 H         1 ACP         0.1050
     45 HN61       -5.2544   -4.1089    0.4813 H         1 ACP         0.4211
     46 HN62       -5.4523   -4.7699    2.0823 H         1 ACP         0.4211
     47 H2         -3.0933   -1.9395    4.8410 H         1 ACP         0.0375
@<TRIPOS>BOND
     1    1    2 2
     2    1    3 1
     3    1    4 1
     4    1    8 1
     5    4   32 1
     6    5    6 2
     7    5    7 1
     8    5    8 1
     9    5   12 1
    10    7   33 1
    11    8   34 1
    12    8   35 1
    13    9   10 2
    14    9   11 1
    15    9   12 1
    16    9   13 1
    17   13   14 1
    18   14   15 1
    19   14   36 1
    20   14   37 1
    21   15   16 1
    22   15   17 1
    23   15   38 1
    24   16   21 1
    25   17   18 1
    26   17   19 1
    27   17   39 1
    28   18   40 1
    29   19   20 1
    30   19   21 1
    31   19   41 1
    32   20   42 1
    33   21   22 1
    34   21   43 1
    35   22   23 ar
    36   22   31 ar
    37   23   24 ar
    38   23   44 1
    39   24   25 ar
    40   25   26 ar
    41   25   31 ar
    42   26   27 1
    43   26   28 ar
    44   27   45 1
    45   27   46 1
    46   28   29 ar
    47   29   30 ar
    48   29   47 1
    49   30   31 ar
@<TRIPOS>SUBSTRUCTURE
     1 ACP         1 GROUP 0 A     ****
@<TRIPOS>MOLECULE
[[[5-(6-aminopurin-9-yl)-3,4-dihydroxy-tetrahydrofuran-2-yl]methoxy-oxido-phosphoryl]oxy-hydroxy-phosphoryl]methyl-hydroxy-phosphinate
   47    49     1     0     0
SMALL
USER_CHARGES

@<TRIPOS>ATOM
      1 PG          1.8520    0.6771   -5.8176 P.3       1 ACP         1.3516
      2 O1G         2.6883    1.8682   -5.4111 O.co2     1 ACP        -0.8379
      3 O2G         2.4555   -0.5510   -6.4589 O.co2     1 ACP        -0.8379
      4 O3G         0.9076    0.2260   -4.5667 O.3       1 ACP        -0.7980
      5 PB         -0.3581    2.8497   -6.6831 P.3       1 ACP         1.7688
      6 O1B        -1.3984    3.1672   -7.7152 O.2       1 ACP        -0.9167
      7 O2B         0.8235    3.9443   -6.5510 O.3       1 ACP        -0.8201
      8 C3B         0.5241    1.2964   -6.9454 C.3       1 ACP        -0.6097
      9 PA         -1.9759    1.6544   -4.5130 P.3       1 ACP         1.5979
     10 O1A        -1.3934    0.2587   -4.5652 O.co2     1 ACP        -0.8617
     11 O2A        -3.3453    1.9426   -5.0888 O.co2     1 ACP        -0.8617
     12 O3A        -0.8949    2.6859   -5.1695 O.3       1 ACP        -0.8283
     13 O5'        -1.9207    2.1716   -2.9622 O.3       1 ACP        -0.5783
     14 C5'        -0.7794    1.8744   -2.1748 C.3       1 ACP         0.1980
     15 C4'        -0.9699    2.4597   -0.7819 C.3       1 ACP         0.0815
     16 O4'        -2.1475    1.8640   -0.2014 O.3       1 ACP        -0.4127
     17 C3'         0.1697    2.1347    0.1695 C.3       1 ACP         0.0890
     18 O3'         0.1809    3.0982    1.2223 O.3       1 ACP        -0.6221
     19 C2'        -0.2543    0.7880    0.7187 C.3       1 ACP         0.1067
     20 O2'         0.3606    0.4944    1.9582 O.3       1 ACP        -0.6053
     21 C1'        -1.7682    0.9516    0.8548 C.3       1 ACP         0.4223
     22 N9         -2.5926   -0.2553    0.7436 N.pl3     1 ACP        -0.6834
     23 C8         -3.5599   -0.4866   -0.1983 C.ar      1 ACP         0.5614
     24 N7         -4.1294   -1.6639   -0.0461 N.2       1 ACP        -0.5751
     25 C5         -3.5041   -2.2191    1.0420 C.ar      1 ACP        -0.2117
     26 C6         -3.6605   -3.4390    1.6925 C.ar      1 ACP         0.7177
     27 N6         -4.6108   -4.3735    1.2468 N.pl3     1 ACP        -0.9401
     28 N1         -2.8820   -3.7179    2.7657 N.ar      1 ACP        -0.8008
     29 C2         -1.9837   -2.7784    3.1481 C.ar      1 ACP         0.6565
     30 N3         -1.7408   -1.5668    2.6022 N.ar      1 ACP        -0.7061
     31 C4         -2.5438   -1.3578    1.5483 C.ar      1 ACP         0.5715
     32 HOG3        1.3393   -0.0444   -3.7284 H         1 ACP         0.4226
     33 HOB2        0.5920    4.8664   -6.3097 H         1 ACP         0.4482
     34 H3B1        0.9700    1.3335   -7.9458 H         1 ACP         0.1012
     35 H3B2       -0.2284    0.5007   -6.9595 H         1 ACP         0.1012
     36 H5'1       -0.6601    0.7877   -2.1202 H         1 ACP         0.0481
     37 H5'2        0.1042    2.3072   -2.6544 H         1 ACP         0.0481
     38 H4'        -1.1469    3.5409   -0.8522 H         1 ACP         0.0904
     39 H3'         1.1601    2.1310   -0.2934 H         1 ACP         0.0809
     40 HO3'        0.9173    2.8584    1.8048 H         1 ACP         0.4528
     41 H2'        -0.0024   -0.0091    0.0062 H         1 ACP         0.0594
     42 HO2'        0.0972    1.1923    2.5835 H         1 ACP         0.4344
     43 H1'        -2.0584    1.4255    1.8301 H         1 ACP         0.1127
     44 H8         -3.8030    0.2355   -0.9657 H         1 ACP         0.1050
     45 HN61       -5.2130   -4.1372    0.4810 H         1 ACP         0.4211
     46 HN62       -4.7404   -5.2263    1.7576 H         1 ACP         0.4211
     47 H2         -1.3778   -3.0348    4.0107 H         1 ACP         0.0375
@<TRIPOS>BOND
     1    1    2 2
     2    1    3 1
     3    1    4 1
     4    1    8 1
     5    4   32 1
     6    5    6 2
     7    5    7 1
     8    5    8 1
     9    5   12 1
    10    7   33 1
    11    8   34 1
    12    8   35 1
    13    9   10 2
    14    9   11 1
    15    9   12 1
    16    9   13 1
    17   13   14 1
    18   14   15 1
    19   14   36 1
    20   14   37 1
    21   15   16 1
    22   15   17 1
    23   15   38 1
    24   16   21 1
    25   17   18 1
    26   17   19 1
    27   17   39 1
    28   18   40 1
    29   19   20 1
    30   19   21 1
    31   19   41 1
    32   20   42 1
    33   21   22 1
    34   21   43 1
    35   22   23 ar
    36   22   31 ar
    37   23   24 ar
    38   23   44 1
    39   24   25 ar
    40   25   26 ar
    41   25   31 ar
    42   26   27 1
    43   26   28 ar
    44   27   45 1
    45   27   46 1
    46   28   29 ar
    47   29   30 ar
    48   29   47 1
    49   30   31 ar
@<TRIPOS>SUBSTRUCTURE
     1 ACP         1 GROUP 0 A     ****
@<TRIPOS>MOLECULE
[[[5-(6-aminopurin-9-yl)-3,4-dihydroxy-tetrahydrofuran-2-yl]methoxy-oxido-phosphoryl]oxy-hydroxy-phosphoryl]methyl-hydroxy-phosphinate
   47    49     1     0     0
SMALL
USER_CHARGES

@<TRIPOS>ATOM
      1 PG          1.8520    0.6771   -5.8176 P.3       1 ACP         1.3516
      2 O1G         2.6883    1.8682   -5.4111 O.co2     1 ACP        -0.8379
      3 O2G         2.4555   -0.5510   -6.4589 O.co2     1 ACP        -0.8379
      4 O3G         0.9076    0.2260   -4.5667 O.3       1 ACP        -0.7980
      5 PB         -0.3581    2.8497   -6.6831 P.3       1 ACP         1.7688
      6 O1B        -1.3984    3.1672   -7.7152 O.2       1 ACP        -0.9167
      7 O2B         0.8235    3.9443   -6.5510 O.3       1 ACP        -0.8201
      8 C3B         0.5241    1.2964   -6.9454 C.3       1 ACP        -0.6097
      9 PA         -1.9759    1.6544   -4.5130 P.3       1 ACP         1.5979
     10 O1A        -1.3934    0.2587   -4.5652 O.co2     1 ACP        -0.8617
     11 O2A        -3.3453    1.9426   -5.0888 O.co2     1 ACP        -0.8617
     12 O3A        -0.8949    2.6859   -5.1695 O.3       1 ACP        -0.8283
     13 O5'        -1.9207    2.1716   -2.9622 O.3       1 ACP        -0.5783
     14 C5'        -0.7794    1.8744   -2.1748 C.3       1 ACP         0.1980
     15 C4'        -0.9699    2.4597   -0.7819 C.3       1 ACP         0.0815
     16 O4'        -2.1475    1.8640   -0.2014 O.3       1 ACP        -0.4127
     17 C3'         0.1697    2.1347    0.1695 C.3       1 ACP         0.0890
     18 O3'         0.1809    3.0982    1.2223 O.3       1 ACP        -0.6221
     19 C2'        -0.2543    0.7880    0.7187 C.3       1 ACP         0.1067
     20 O2'         0.3606    0.4944    1.9582 O.3       1 ACP        -0.6053
     21 C1'        -1.7682    0.9516    0.8548 C.3       1 ACP         0.4223
     22 N9         -2.5926   -0.2553    0.7436 N.pl3     1 ACP        -0.6834
     23 C8         -2.2879   -1.3752    0.0161 C.ar      1 ACP         0.5614
     24 N7         -3.2214   -2.2987    0.1123 N.2       1 ACP        -0.5751
     25 C5         -4.1722   -1.7531    0.9377 C.ar      1 ACP        -0.2117
     26 C6         -5.3870   -2.2342    1.4159 C.ar      1 ACP         0.7177
     27 N6         -5.8433   -3.5142    1.0574 N.pl3     1 ACP        -0.9401
     28 N1         -6.1289   -1.4512    2.2356 N.ar      1 ACP        -0.8008
     29 C2         -5.6370   -0.2275    2.5461 C.ar      1 ACP         0.6565
     30 N3         -4.4810    0.3469    2.1476 N.ar      1 ACP        -0.7061
     31 C4         -3.7996   -0.4810    1.3417 C.ar      1 ACP         0.5715
     32 HOG3        1.3393   -0.0444   -3.7284 H         1 ACP         0.4226
     33 HOB2        0.5920    4.8664   -6.3097 H         1 ACP         0.4482
     34 H3B1        0.9700    1.3335   -7.9458 H         1 ACP         0.1012
     35 H3B2       -0.2284    0.5007   -6.9595 H         1 ACP         0.1012
     36 H5'1       -0.6601    0.7877   -2.1202 H         1 ACP         0.0481
     37 H5'2        0.1042    2.3072   -2.6544 H         1 ACP         0.0481
     38 H4'        -1.1469    3.5409   -0.8522 H         1 ACP         0.0904
     39 H3'         1.1601    2.1310   -0.2934 H         1 ACP         0.0809
     40 HO3'        0.9173    2.8584    1.8048 H         1 ACP         0.4528
     41 H2'        -0.0024   -0.0091    0.0062 H         1 ACP         0.0594
     42 HO2'        0.0384   -0.3797    2.2403 H         1 ACP         0.4344
     43 H1'        -2.0584    1.4255    1.8301 H         1 ACP         0.1127
     44 H8         -1.3765   -1.4593   -0.5599 H         1 ACP         0.1050
     45 HN61       -5.3086   -4.0656    0.4134 H         1 ACP         0.4211
     46 HN62       -6.7426   -3.8233    1.3745 H         1 ACP         0.4211
     47 H2         -6.2570    0.3723    3.2040 H         1 ACP         0.0375
@<TRIPOS>BOND
     1    1    2 2
     2    1    3 1
     3    1    4 1
     4    1    8 1
     5    4   32 1
     6    5    6 2
     7    5    7 1
     8    5    8 1
     9    5   12 1
    10    7   33 1
    11    8   34 1
    12    8   35 1
    13    9   10 2
    14    9   11 1
    15    9   12 1
    16    9   13 1
    17   13   14 1
    18   14   15 1
    19   14   36 1
    20   14   37 1
    21   15   16 1
    22   15   17 1
    23   15   38 1
    24   16   21 1
    25   17   18 1
    26   17   19 1
    27   17   39 1
    28   18   40 1
    29   19   20 1
    30   19   21 1
    31   19   41 1
    32   20   42 1
    33   21   22 1
    34   21   43 1
    35   22   23 ar
    36   22   31 ar
    37   23   24 ar
    38   23   44 1
    39   24   25 ar
    40   25   26 ar
    41   25   31 ar
    42   26   27 1
    43   26   28 ar
    44   27   45 1
    45   27   46 1
    46   28   29 ar
    47   29   30 ar
    48   29   47 1
    49   30   31 ar
@<TRIPOS>SUBSTRUCTURE
     1 ACP         1 GROUP 0 A     ****
@<TRIPOS>MOLECULE
[[[5-(6-aminopurin-9-yl)-3,4-dihydroxy-tetrahydrofuran-2-yl]methoxy-oxido-phosphoryl]oxy-hydroxy-phosphoryl]methyl-hydroxy-phosphinate
   47    49     1     0     0
SMALL
USER_CHARGES

@<TRIPOS>ATOM
      1 PG          0.9655    5.3117   -6.7734 P.3       1 ACP         1.3516
      2 O1G        -0.3411    6.0237   -6.5105 O.co2     1 ACP        -0.8379
      3 O2G         2.0194    5.8753   -7.6982 O.co2     1 ACP        -0.8379
      4 O3G         1.6546    4.9022   -5.3530 O.3       1 ACP        -0.7980
      5 PB         -0.7842    2.6126   -6.6854 P.3       1 ACP         1.7688
      6 O1B        -0.9496    1.2609   -7.3129 O.2       1 ACP        -0.9167
      7 O2B        -2.0770    3.5759   -6.7974 O.3       1 ACP        -0.8201
      8 C3B         0.5547    3.6109   -7.3714 C.3       1 ACP        -0.6097
      9 PA          0.8118    1.9900   -4.2728 P.3       1 ACP         1.5979
     10 O1A         2.0649    2.7491   -4.6519 O.co2     1 ACP        -0.8617
     11 O2A         0.7623    0.4809   -4.3720 O.co2     1 ACP        -0.8617
     12 O3A        -0.4411    2.6194   -5.1080 O.3       1 ACP        -0.8283
     13 O5'         0.3757    2.4481   -2.7643 O.3       1 ACP        -0.5783
     14 C5'        -0.7794    1.8744   -2.1748 C.3       1 ACP         0.1980
     15 C4'        -0.9699    2.4597   -0.7819 C.3       1 ACP         0.0815
     16 O4'        -2.1475    1.8640   -0.2014 O.3       1 ACP        -0.4127
     17 C3'         0.1697    2.1347    0.1695 C.3       1 ACP         0.0890
     18 O3'         0.1809    3.0982    1.2223 O.3       1 ACP        -0.6221
     19 C2'        -0.2543    0.7880    0.7187 C.3       1 ACP         0.1067
     20 O2'         0.3606    0.4944    1.9582 O.3       1 ACP        -0.6053
     21 C1'        -1.7682    0.9516    0.8548 C.3       1 ACP         0.4223
     22 N9         -2.5926   -0.2553    0.7436 N.pl3     1 ACP        -0.6834
     23 C8         -3.5599   -0.4866   -0.1983 C.ar      1 ACP         0.5614
     24 N7         -4.1294   -1.6639   -0.0461 N.2       1 ACP        -0.5751
     25 C5         -3.5041   -2.2191    1.0420 C.ar      1 ACP        -0.2117
     26 C6         -3.6605   -3.4390    1.6925 C.ar      1 ACP         0.7177
     27 N6         -4.6108   -4.3735    1.2468 N.pl3     1 ACP        -0.9401
     28 N1         -2.8820   -3.7179    2.7657 N.ar      1 ACP        -0.8008
     29 C2         -1.9837   -2.7784    3.1481 C.ar      1 ACP         0.6565
     30 N3         -1.7408   -1.5668    2.6022 N.ar      1 ACP        -0.7061
     31 C4         -2.5438   -1.3578    1.5483 C.ar      1 ACP         0.5715
     32 HOG3        1.8806    5.6164   -4.7196 H         1 ACP         0.4226
     33 HOB2       -2.9235    3.2833   -6.3975 H         1 ACP         0.4482
     34 H3B1        0.3802    3.7033   -8.4493 H         1 ACP         0.1012
     35 H3B2        1.4783    3.0361   -7.2446 H         1 ACP         0.1012
     36 H5'1       -1.6463    2.0967   -2.8051 H         1 ACP         0.0481
     37 H5'2       -0.6469    0.7893   -2.1194 H         1 ACP         0.0481
     38 H4'        -1.1469    3.5409   -0.8522 H         1 ACP         0.0904
     39 H3'         1.1601    2.1310   -0.2934 H         1 ACP         0.0809
     40 HO3'        0.3098    3.9616    0.8017 H         1 ACP         0.4528
     41 H2'        -0.0024   -0.0091    0.0062 H         1 ACP         0.0594
     42 HO2'        1.3225    0.4909    1.8095 H         1 ACP         0.4344
     43 H1'        -2.0584    1.4255    1.8301 H         1 ACP         0.1127
     44 H8         -3.8030    0.2355   -0.9657 H         1 ACP         0.1050
     45 HN61       -5.2130   -4.1372    0.4810 H         1 ACP         0.4211
     46 HN62       -4.7404   -5.2263    1.7576 H         1 ACP         0.4211
     47 H2         -1.3778   -3.0348    4.0107 H         1 ACP         0.0375
@<TRIPOS>BOND
     1    1    2 2
     2    1    3 1
     3    1    4 1
     4    1    8 1
     5    4   32 1
     6    5    6 2
     7    5    7 1
     8    5    8 1
     9    5   12 1
    10    7   33 1
    11    8   34 1
    12    8   35 1
    13    9   10 2
    14    9   11 1
    15    9   12 1
    16    9   13 1
    17   13   14 1
    18   14   15 1
    19   14   36 1
    20   14   37 1
    21   15   16 1
    22   15   17 1
    23   15   38 1
    24   16   21 1
    25   17   18 1
    26   17   19 1
    27   17   39 1
    28   18   40 1
    29   19   20 1
    30   19   21 1
    31   19   41 1
    32   20   42 1
    33   21   22 1
    34   21   43 1
    35   22   23 ar
    36   22   31 ar
    37   23   24 ar
    38   23   44 1
    39   24   25 ar
    40   25   26 ar
    41   25   31 ar
    42   26   27 1
    43   26   28 ar
    44   27   45 1
    45   27   46 1
    46   28   29 ar
    47   29   30 ar
    48   29   47 1
    49   30   31 ar
@<TRIPOS>SUBSTRUCTURE
     1 ACP         1 GROUP 0 A     ****
@<TRIPOS>MOLECULE
[[[5-(6-aminopurin-9-yl)-3,4-dihydroxy-tetrahydrofuran-2-yl]methoxy-oxido-phosphoryl]oxy-hydroxy-phosphoryl]methyl-hydroxy-phosphinate
   47    49     1     0     0
SMALL
USER_CHARGES

@<TRIPOS>ATOM
      1 PG         -4.4785    7.1834    2.2961 P.3       1 ACP         1.3516
      2 O1G        -4.1986    7.3852    0.8250 O.co2     1 ACP        -0.8379
      3 O2G        -5.5537    7.9549    3.0259 O.co2     1 ACP        -0.8379
      4 O3G        -4.6537    5.5907    2.6007 O.3       1 ACP        -0.7980
      5 PB         -1.2898    6.8748    2.5972 P.3       1 ACP         1.7688
      6 O1B        -0.1245    7.1997    3.4830 O.2       1 ACP        -0.9167
      7 O2B        -1.1987    7.4861    1.1040 O.3       1 ACP        -0.8201
      8 C3B        -2.8892    7.4554    3.2011 C.3       1 ACP        -0.6097
      9 PA         -1.9156    4.0919    3.3842 P.3       1 ACP         1.5979
     10 O1A        -3.2869    4.3461    3.9714 O.co2     1 ACP        -0.8617
     11 O2A        -0.7216    3.8543    4.2830 O.co2     1 ACP        -0.8617
     12 O3A        -1.5687    5.3044    2.3483 O.3       1 ACP        -0.8283
     13 O5'        -2.0402    2.8619    2.3131 O.3       1 ACP        -0.5783
     14 C5'        -0.8811    2.4285    1.6206 C.3       1 ACP         0.1980
     15 C4'        -0.1994    1.3333    2.4288 C.3       1 ACP         0.0815
     16 O4'        -1.1285    0.2356    2.5840 O.3       1 ACP        -0.4127
     17 C3'         1.0324    0.7610    1.7344 C.3       1 ACP         0.0890
     18 O3'         1.9175    0.2377    2.7247 O.3       1 ACP        -0.6221
     19 C2'         0.4468   -0.3802    0.9263 C.3       1 ACP         0.1067
     20 O2'         1.3993   -1.3703    0.5961 O.3       1 ACP        -0.6053
     21 C1'        -0.6159   -0.9100    1.8769 C.3       1 ACP         0.4223
     22 N9         -1.7127   -1.6108    1.2130 N.pl3     1 ACP        -0.6834
     23 C8         -2.0877   -2.9101    1.4304 C.ar      1 ACP         0.5614
     24 N7         -3.1152   -3.2613    0.6857 N.2       1 ACP        -0.5751
     25 C5         -3.4186   -2.1409   -0.0462 C.ar      1 ACP        -0.2117
     26 C6         -4.3953   -1.8809   -1.0023 C.ar      1 ACP         0.7177
     27 N6         -5.3118   -2.8767   -1.3812 N.pl3     1 ACP        -0.9401
     28 N1         -4.4538   -0.6507   -1.5667 N.ar      1 ACP        -0.8008
     29 C2         -3.5442    0.2679   -1.1609 C.ar      1 ACP         0.6565
     30 N3         -2.5561    0.1361   -0.2491 N.ar      1 ACP        -0.7061
     31 C4         -2.5568   -1.1019    0.2674 C.ar      1 ACP         0.5715
     32 HOG3       -5.3685    5.1021    2.1396 H         1 ACP         0.4226
     33 HOB2       -0.4463    7.2279    0.5301 H         1 ACP         0.4482
     34 H3B1       -2.8115    8.5373    3.3572 H         1 ACP         0.1012
     35 H3B2       -3.0430    7.0001    4.1852 H         1 ACP         0.1012
     36 H5'1       -1.1770    2.0503    0.6369 H         1 ACP         0.0481
     37 H5'2       -0.2082    3.2815    1.4877 H         1 ACP         0.0481
     38 H4'         0.0403    1.7078    3.4343 H         1 ACP         0.0904
     39 H3'         1.5906    1.4859    1.1353 H         1 ACP         0.0809
     40 HO3'        2.1521    0.9800    3.3017 H         1 ACP         0.4528
     41 H2'        -0.0017    0.0018    0.0005 H         1 ACP         0.0594
     42 HO2'        0.9369   -2.0558    0.0825 H         1 ACP         0.4344
     43 H1'        -0.1998   -1.6319    2.6178 H         1 ACP         0.1127
     44 H8         -1.5778   -3.5473    2.1399 H         1 ACP         0.1050
     45 HN61       -5.2294   -3.7965   -0.9914 H         1 ACP         0.4211
     46 HN62       -5.9774   -2.6837   -2.1055 H         1 ACP         0.4211
     47 H2         -3.6201    1.2414   -1.6336 H         1 ACP         0.0375
@<TRIPOS>BOND
     1    1    2 2
     2    1    3 1
     3    1    4 1
     4    1    8 1
     5    4   32 1
     6    5    6 2
     7    5    7 1
     8    5    8 1
     9    5   12 1
    10    7   33 1
    11    8   34 1
    12    8   35 1
    13    9   10 2
    14    9   11 1
    15    9   12 1
    16    9   13 1
    17   13   14 1
    18   14   15 1
    19   14   36 1
    20   14   37 1
    21   15   16 1
    22   15   17 1
    23   15   38 1
    24   16   21 1
    25   17   18 1
    26   17   19 1
    27   17   39 1
    28   18   40 1
    29   19   20 1
    30   19   21 1
    31   19   41 1
    32   20   42 1
    33   21   22 1
    34   21   43 1
    35   22   23 ar
    36   22   31 ar
    37   23   24 ar
    38   23   44 1
    39   24   25 ar
    40   25   26 ar
    41   25   31 ar
    42   26   27 1
    43   26   28 ar
    44   27   45 1
    45   27   46 1
    46   28   29 ar
    47   29   30 ar
    48   29   47 1
    49   30   31 ar
@<TRIPOS>SUBSTRUCTURE
     1 ACP         1 GROUP 0 A     ****
@<TRIPOS>MOLECULE
[[[5-(6-aminopurin-9-yl)-3,4-dihydroxy-tetrahydrofuran-2-yl]methoxy-oxido-phosphoryl]oxy-hydroxy-phosphoryl]methyl-hydroxy-phosphinate
   47    49     1     0     0
SMALL
USER_CHARGES

@<TRIPOS>ATOM
      1 PG         -2.5141    2.6851   -7.8616 P.3       1 ACP         1.3516
      2 O1G        -1.5040    1.5968   -8.1418 O.co2     1 ACP        -0.8379
      3 O2G        -3.4976    3.1610   -8.9057 O.co2     1 ACP        -0.8379
      4 O3G        -3.3134    2.3404   -6.4823 O.3       1 ACP        -0.7980
      5 PB         -0.1695    4.0623   -6.1411 P.3       1 ACP         1.7688
      6 O1B         0.4482    5.3803   -5.7813 O.2       1 ACP        -0.9167
      7 O2B         0.8286    3.0211   -6.8701 O.3       1 ACP        -0.8201
      8 C3B        -1.5782    4.1643   -7.2658 C.3       1 ACP        -0.6097
      9 PA         -1.9500    3.5562   -3.8327 P.3       1 ACP         1.5979
     10 O1A        -3.2695    3.6209   -4.5707 O.co2     1 ACP        -0.8617
     11 O2A        -1.4949    4.7059   -2.9604 O.co2     1 ACP        -0.8617
     12 O3A        -0.7756    3.2097   -4.9116 O.3       1 ACP        -0.8283
     13 O5'        -1.9207    2.1716   -2.9622 O.3       1 ACP        -0.5783
     14 C5'        -0.7794    1.8744   -2.1748 C.3       1 ACP         0.1980
     15 C4'        -0.9699    2.4597   -0.7819 C.3       1 ACP         0.0815
     16 O4'        -2.1475    1.8640   -0.2014 O.3       1 ACP        -0.4127
     17 C3'         0.1697    2.1347    0.1695 C.3       1 ACP         0.0890
     18 O3'         0.1809    3.0982    1.2223 O.3       1 ACP        -0.6221
     19 C2'        -0.2543    0.7880    0.7187 C.3       1 ACP         0.1067
     20 O2'         0.3606    0.4944    1.9582 O.3       1 ACP        -0.6053
     21 C1'        -1.7682    0.9516    0.8548 C.3       1 ACP         0.4223
     22 N9         -2.5926   -0.2553    0.7436 N.pl3     1 ACP        -0.6834
     23 C8         -2.6464   -1.0979   -0.3350 C.ar      1 ACP         0.5614
     24 N7         -3.4765   -2.1012   -0.1401 N.2       1 ACP        -0.5751
     25 C5         -3.9826   -1.8994    1.1194 C.ar      1 ACP        -0.2117
     26 C6         -4.8981   -2.6116    1.8877 C.ar      1 ACP         0.7177
     27 N6         -5.4931   -3.7842    1.3916 N.pl3     1 ACP        -0.9401
     28 N1         -5.2111   -2.1602    3.1262 N.ar      1 ACP        -0.8008
     29 C2         -4.6051   -1.0248    3.5500 C.ar      1 ACP         0.6565
     30 N3         -3.7075   -0.2510    2.9016 N.ar      1 ACP        -0.7061
     31 C4         -3.4448   -0.7551    1.6866 C.ar      1 ACP         0.5715
     32 HOG3       -3.8247    1.5046   -6.4344 H         1 ACP         0.4226
     33 HOB2        1.6376    2.7292   -6.3985 H         1 ACP         0.4482
     34 H3B1       -1.2461    4.6946   -8.1655 H         1 ACP         0.1012
     35 H3B2       -2.3290    4.7968   -6.7801 H         1 ACP         0.1012
     36 H5'1       -0.6601    0.7877   -2.1202 H         1 ACP         0.0481
     37 H5'2        0.1042    2.3072   -2.6544 H         1 ACP         0.0481
     38 H4'        -1.1469    3.5409   -0.8522 H         1 ACP         0.0904
     39 H3'         1.1601    2.1310   -0.2934 H         1 ACP         0.0809
     40 HO3'        0.3098    3.9616    0.8017 H         1 ACP         0.4528
     41 H2'        -0.0024   -0.0091    0.0062 H         1 ACP         0.0594
     42 HO2'        0.0384   -0.3797    2.2403 H         1 ACP         0.4344
     43 H1'        -2.0584    1.4255    1.8301 H         1 ACP         0.1127
     44 H8         -2.0609   -0.9301   -1.2286 H         1 ACP         0.1050
     45 HN61       -5.2894   -4.0827    0.4566 H         1 ACP         0.4211
     46 HN62       -6.1852   -4.2564    1.9420 H         1 ACP         0.4211
     47 H2         -4.8793   -0.6924    4.5457 H         1 ACP         0.0375
@<TRIPOS>BOND
     1    1    2 2
     2    1    3 1
     3    1    4 1
     4    1    8 1
     5    4   32 1
     6    5    6 2
     7    5    7 1
     8    5    8 1
     9    5   12 1
    10    7   33 1
    11    8   34 1
    12    8   35 1
    13    9   10 2
    14    9   11 1
    15    9   12 1
    16    9   13 1
    17   13   14 1
    18   14   15 1
    19   14   36 1
    20   14   37 1
    21   15   16 1
    22   15   17 1
    23   15   38 1
    24   16   21 1
    25   17   18 1
    26   17   19 1
    27   17   39 1
    28   18   40 1
    29   19   20 1
    30   19   21 1
    31   19   41 1
    32   20   42 1
    33   21   22 1
    34   21   43 1
    35   22   23 ar
    36   22   31 ar
    37   23   24 ar
    38   23   44 1
    39   24   25 ar
    40   25   26 ar
    41   25   31 ar
    42   26   27 1
    43   26   28 ar
    44   27   45 1
    45   27   46 1
    46   28   29 ar
    47   29   30 ar
    48   29   47 1
    49   30   31 ar
@<TRIPOS>SUBSTRUCTURE
     1 ACP         1 GROUP 0 A     ****
@<TRIPOS>MOLECULE
[[[5-(6-aminopurin-9-yl)-3,4-dihydroxy-tetrahydrofuran-2-yl]methoxy-oxido-phosphoryl]oxy-hydroxy-phosphoryl]methyl-hydroxy-phosphinate
   47    49     1     0     0
SMALL
USER_CHARGES

@<TRIPOS>ATOM
      1 PG         -0.3161    2.5977   -3.2052 P.3       1 ACP         1.3516
      2 O1G         0.1988    1.3133   -2.5981 O.co2     1 ACP        -0.8379
      3 O2G        -0.5995    2.7345   -4.6832 O.co2     1 ACP        -0.8379
      4 O3G        -1.6073    3.1189   -2.3559 O.3       1 ACP        -0.7980
      5 PB          1.2343    4.3949   -1.0324 P.3       1 ACP         1.7688
      6 O1B         2.2242    5.5099   -0.8742 O.2       1 ACP        -0.9167
      7 O2B         1.6706    2.9974   -0.3480 O.3       1 ACP        -0.8201
      8 C3B         0.8686    3.9394   -2.7408 C.3       1 ACP        -0.6097
      9 PA         -0.7383    5.0057    1.0867 P.3       1 ACP         1.5979
     10 O1A        -2.2514    4.9889    1.1027 O.co2     1 ACP        -0.8617
     11 O2A         0.0270    6.2040    1.6044 O.co2     1 ACP        -0.8617
     12 O3A        -0.2379    4.6695   -0.4299 O.3       1 ACP        -0.8283
     13 O5'        -0.2060    3.6558    1.8418 O.3       1 ACP        -0.5783
     14 C5'        -0.8811    2.4285    1.6206 C.3       1 ACP         0.1980
     15 C4'        -0.1994    1.3333    2.4288 C.3       1 ACP         0.0815
     16 O4'        -1.1285    0.2356    2.5840 O.3       1 ACP        -0.4127
     17 C3'         1.0324    0.7610    1.7344 C.3       1 ACP         0.0890
     18 O3'         1.9175    0.2377    2.7247 O.3       1 ACP        -0.6221
     19 C2'         0.4468   -0.3802    0.9263 C.3       1 ACP         0.1067
     20 O2'         1.3993   -1.3703    0.5961 O.3       1 ACP        -0.6053
     21 C1'        -0.6159   -0.9100    1.8769 C.3       1 ACP         0.4223
     22 N9         -1.7127   -1.6108    1.2130 N.pl3     1 ACP        -0.6834
     23 C8         -2.0877   -2.9101    1.4304 C.ar      1 ACP         0.5614
     24 N7         -3.1152   -3.2613    0.6857 N.2       1 ACP        -0.5751
     25 C5         -3.4186   -2.1409   -0.0462 C.ar      1 ACP        -0.2117
     26 C6         -4.3953   -1.8809   -1.0023 C.ar      1 ACP         0.7177
     27 N6         -5.3118   -2.8767   -1.3812 N.pl3     1 ACP        -0.9401
     28 N1         -4.4538   -0.6507   -1.5667 N.ar      1 ACP        -0.8008
     29 C2         -3.5442    0.2679   -1.1609 C.ar      1 ACP         0.6565
     30 N3         -2.5561    0.1361   -0.2491 N.ar      1 ACP        -0.7061
     31 C4         -2.5568   -1.1019    0.2674 C.ar      1 ACP         0.5715
     32 HOG3       -2.3941    2.5361   -2.2962 H         1 ACP         0.4226
     33 HOB2        1.8319    2.9722    0.6192 H         1 ACP         0.4482
     34 H3B1        1.8177    3.6862   -3.2267 H         1 ACP         0.1012
     35 H3B2        0.4854    4.8383   -3.2355 H         1 ACP         0.1012
     36 H5'1       -1.9255    2.5382    1.9294 H         1 ACP         0.0481
     37 H5'2       -0.8473    2.1933    0.5521 H         1 ACP         0.0481
     38 H4'         0.0403    1.7078    3.4343 H         1 ACP         0.0904
     39 H3'         1.5906    1.4859    1.1353 H         1 ACP         0.0809
     40 HO3'        2.1521    0.9800    3.3017 H         1 ACP         0.4528
     41 H2'        -0.0017    0.0018    0.0005 H         1 ACP         0.0594
     42 HO2'        0.9369   -2.0558    0.0825 H         1 ACP         0.4344
     43 H1'        -0.1998   -1.6319    2.6178 H         1 ACP         0.1127
     44 H8         -1.5778   -3.5473    2.1399 H         1 ACP         0.1050
     45 HN61       -5.2294   -3.7965   -0.9914 H         1 ACP         0.4211
     46 HN62       -5.9774   -2.6837   -2.1055 H         1 ACP         0.4211
     47 H2         -3.6201    1.2414   -1.6336 H         1 ACP         0.0375
@<TRIPOS>BOND
     1    1    2 2
     2    1    3 1
     3    1    4 1
     4    1    8 1
     5    4   32 1
     6    5    6 2
     7    5    7 1
     8    5    8 1
     9    5   12 1
    10    7   33 1
    11    8   34 1
    12    8   35 1
    13    9   10 2
    14    9   11 1
    15    9   12 1
    16    9   13 1
    17   13   14 1
    18   14   15 1
    19   14   36 1
    20   14   37 1
    21   15   16 1
    22   15   17 1
    23   15   38 1
    24   16   21 1
    25   17   18 1
    26   17   19 1
    27   17   39 1
    28   18   40 1
    29   19   20 1
    30   19   21 1
    31   19   41 1
    32   20   42 1
    33   21   22 1
    34   21   43 1
    35   22   23 ar
    36   22   31 ar
    37   23   24 ar
    38   23   44 1
    39   24   25 ar
    40   25   26 ar
    41   25   31 ar
    42   26   27 1
    43   26   28 ar
    44   27   45 1
    45   27   46 1
    46   28   29 ar
    47   29   30 ar
    48   29   47 1
    49   30   31 ar
@<TRIPOS>SUBSTRUCTURE
     1 ACP         1 GROUP 0 A     ****
@<TRIPOS>MOLECULE
[[[5-(6-aminopurin-9-yl)-3,4-dihydroxy-tetrahydrofuran-2-yl]methoxy-oxido-phosphoryl]oxy-hydroxy-phosphoryl]methyl-hydroxy-phosphinate
   47    49     1     0     0
SMALL
USER_CHARGES

@<TRIPOS>ATOM
      1 PG          0.8076   -2.6911   -2.6970 P.3       1 ACP         1.3516
      2 O1G         1.0690   -4.1689   -2.8737 O.co2     1 ACP        -0.8379
      3 O2G        -0.2946   -1.9725   -3.4403 O.co2     1 ACP        -0.8379
      4 O3G         0.7023   -2.3460   -1.1065 O.3       1 ACP        -0.7980
      5 PB          2.5650   -0.0102   -2.9765 P.3       1 ACP         1.7688
      6 O1B         3.9332    0.5066   -3.3071 O.2       1 ACP        -0.9167
      7 O2B         2.0399    0.3589   -1.4934 O.3       1 ACP        -0.8201
      8 C3B         2.3898   -1.8053   -3.0586 C.3       1 ACP        -0.6097
      9 PA          0.8118    1.9900   -4.2728 P.3       1 ACP         1.5979
     10 O1A        -0.4443    1.8534   -5.1054 O.co2     1 ACP        -0.8617
     11 O2A         1.9624    2.8520   -4.7450 O.co2     1 ACP        -0.8617
     12 O3A         1.3706    0.4935   -3.9385 O.3       1 ACP        -0.8283
     13 O5'         0.3757    2.4481   -2.7643 O.3       1 ACP        -0.5783
     14 C5'        -0.7794    1.8744   -2.1748 C.3       1 ACP         0.1980
     15 C4'        -0.9699    2.4597   -0.7819 C.3       1 ACP         0.0815
     16 O4'        -2.1475    1.8640   -0.2014 O.3       1 ACP        -0.4127
     17 C3'         0.1697    2.1347    0.1695 C.3       1 ACP         0.0890
     18 O3'         0.1809    3.0982    1.2223 O.3       1 ACP        -0.6221
     19 C2'        -0.2543    0.7880    0.7187 C.3       1 ACP         0.1067
     20 O2'         0.3606    0.4944    1.9582 O.3       1 ACP        -0.6053
     21 C1'        -1.7682    0.9516    0.8548 C.3       1 ACP         0.4223
     22 N9         -2.5926   -0.2553    0.7436 N.pl3     1 ACP        -0.6834
     23 C8         -3.5599   -0.4866   -0.1983 C.ar      1 ACP         0.5614
     24 N7         -4.1294   -1.6639   -0.0461 N.2       1 ACP        -0.5751
     25 C5         -3.5041   -2.2191    1.0420 C.ar      1 ACP        -0.2117
     26 C6         -3.6605   -3.4390    1.6925 C.ar      1 ACP         0.7177
     27 N6         -4.6108   -4.3735    1.2468 N.pl3     1 ACP        -0.9401
     28 N1         -2.8820   -3.7179    2.7657 N.ar      1 ACP        -0.8008
     29 C2         -1.9837   -2.7784    3.1481 C.ar      1 ACP         0.6565
     30 N3         -1.7408   -1.5668    2.6022 N.ar      1 ACP        -0.7061
     31 C4         -2.5438   -1.3578    1.5483 C.ar      1 ACP         0.5715
     32 HOG3        0.0059   -2.7895   -0.5767 H         1 ACP         0.4226
     33 HOB2        1.9521    1.3028   -1.2418 H         1 ACP         0.4482
     34 H3B1        3.1406   -2.2424   -2.3905 H         1 ACP         0.1012
     35 H3B2        2.6549   -2.1054   -4.0781 H         1 ACP         0.1012
     36 H5'1       -1.6463    2.0967   -2.8051 H         1 ACP         0.0481
     37 H5'2       -0.6469    0.7893   -2.1194 H         1 ACP         0.0481
     38 H4'        -1.1469    3.5409   -0.8522 H         1 ACP         0.0904
     39 H3'         1.1601    2.1310   -0.2934 H         1 ACP         0.0809
     40 HO3'        0.9173    2.8584    1.8048 H         1 ACP         0.4528
     41 H2'        -0.0024   -0.0091    0.0062 H         1 ACP         0.0594
     42 HO2'        0.0384   -0.3797    2.2403 H         1 ACP         0.4344
     43 H1'        -2.0584    1.4255    1.8301 H         1 ACP         0.1127
     44 H8         -3.8030    0.2355   -0.9657 H         1 ACP         0.1050
     45 HN61       -5.2130   -4.1372    0.4810 H         1 ACP         0.4211
     46 HN62       -4.7404   -5.2263    1.7576 H         1 ACP         0.4211
     47 H2         -1.3778   -3.0348    4.0107 H         1 ACP         0.0375
@<TRIPOS>BOND
     1    1    2 2
     2    1    3 1
     3    1    4 1
     4    1    8 1
     5    4   32 1
     6    5    6 2
     7    5    7 1
     8    5    8 1
     9    5   12 1
    10    7   33 1
    11    8   34 1
    12    8   35 1
    13    9   10 2
    14    9   11 1
    15    9   12 1
    16    9   13 1
    17   13   14 1
    18   14   15 1
    19   14   36 1
    20   14   37 1
    21   15   16 1
    22   15   17 1
    23   15   38 1
    24   16   21 1
    25   17   18 1
    26   17   19 1
    27   17   39 1
    28   18   40 1
    29   19   20 1
    30   19   21 1
    31   19   41 1
    32   20   42 1
    33   21   22 1
    34   21   43 1
    35   22   23 ar
    36   22   31 ar
    37   23   24 ar
    38   23   44 1
    39   24   25 ar
    40   25   26 ar
    41   25   31 ar
    42   26   27 1
    43   26   28 ar
    44   27   45 1
    45   27   46 1
    46   28   29 ar
    47   29   30 ar
    48   29   47 1
    49   30   31 ar
@<TRIPOS>SUBSTRUCTURE
     1 ACP         1 GROUP 0 A     ****
@<TRIPOS>MOLECULE
[[[5-(6-aminopurin-9-yl)-3,4-dihydroxy-tetrahydrofuran-2-yl]methoxy-oxido-phosphoryl]oxy-hydroxy-phosphoryl]methyl-hydroxy-phosphinate
   47    49     1     0     0
SMALL
USER_CHARGES

@<TRIPOS>ATOM
      1 PG         -4.7084    3.2115   -2.3670 P.3       1 ACP         1.3516
      2 O1G        -6.1389    3.6583   -2.1739 O.co2     1 ACP        -0.8379
      3 O2G        -4.1309    2.0187   -1.6407 O.co2     1 ACP        -0.8379
      4 O3G        -4.3927    3.0792   -3.9616 O.3       1 ACP        -0.7980
      5 PB         -3.5941    5.5018   -0.4006 P.3       1 ACP         1.7688
      6 O1B        -4.9043    6.0916    0.0280 O.2       1 ACP        -0.9167
      7 O2B        -2.3864    6.5656   -0.5480 O.3       1 ACP        -0.8201
      8 C3B        -3.6241    4.6634   -1.9993 C.3       1 ACP        -0.6097
      9 PA         -2.5403    4.4097    2.1396 P.3       1 ACP         1.5979
     10 O1A        -3.7850    4.5996    2.9788 O.co2     1 ACP        -0.8617
     11 O2A        -1.3558    5.3389    2.2922 O.co2     1 ACP        -0.8617
     12 O3A        -2.9826    4.3653    0.5693 O.3       1 ACP        -0.8283
     13 O5'        -2.0402    2.8619    2.3131 O.3       1 ACP        -0.5783
     14 C5'        -0.8811    2.4285    1.6206 C.3       1 ACP         0.1980
     15 C4'        -0.1994    1.3333    2.4288 C.3       1 ACP         0.0815
     16 O4'        -1.1285    0.2356    2.5840 O.3       1 ACP        -0.4127
     17 C3'         1.0324    0.7610    1.7344 C.3       1 ACP         0.0890
     18 O3'         1.9175    0.2377    2.7247 O.3       1 ACP        -0.6221
     19 C2'         0.4468   -0.3802    0.9263 C.3       1 ACP         0.1067
     20 O2'         1.3993   -1.3703    0.5961 O.3       1 ACP        -0.6053
     21 C1'        -0.6159   -0.9100    1.8769 C.3       1 ACP         0.4223
     22 N9         -1.7127   -1.6108    1.2130 N.pl3     1 ACP        -0.6834
     23 C8         -1.7712   -2.9546    0.9544 C.ar      1 ACP         0.5614
     24 N7         -2.8883   -3.2948    0.3462 N.2       1 ACP        -0.5751
     25 C5         -3.5834   -2.1202    0.2043 C.ar      1 ACP        -0.2117
     26 C6         -4.8225   -1.8251   -0.3554 C.ar      1 ACP         0.7177
     27 N6         -5.6154   -2.8395   -0.9189 N.pl3     1 ACP        -0.9401
     28 N1         -5.2589   -0.5425   -0.3507 N.ar      1 ACP        -0.8008
     29 C2         -4.4510    0.3913    0.2069 C.ar      1 ACP         0.6565
     30 N3         -3.2368    0.2296    0.7767 N.ar      1 ACP        -0.7061
     31 C4         -2.8684   -1.0596    0.7376 C.ar      1 ACP         0.5715
     32 HOG3       -4.9262    2.4509   -4.4935 H         1 ACP         0.4226
     33 HOB2       -2.1127    7.0854    0.2375 H         1 ACP         0.4482
     34 H3B1       -2.6009    4.3412   -2.2237 H         1 ACP         0.1012
     35 H3B2       -3.8947    5.4150   -2.7486 H         1 ACP         0.1012
     36 H5'1       -1.1770    2.0503    0.6369 H         1 ACP         0.0481
     37 H5'2       -0.2082    3.2815    1.4877 H         1 ACP         0.0481
     38 H4'         0.0403    1.7078    3.4343 H         1 ACP         0.0904
     39 H3'         1.5906    1.4859    1.1353 H         1 ACP         0.0809
     40 HO3'        2.6839   -0.1150    2.2479 H         1 ACP         0.4528
     41 H2'        -0.0017    0.0018    0.0005 H         1 ACP         0.0594
     42 HO2'        2.0953   -0.9375    0.0709 H         1 ACP         0.4344
     43 H1'        -0.1998   -1.6319    2.6178 H         1 ACP         0.1127
     44 H8         -0.9745   -3.6312    1.2318 H         1 ACP         0.1050
     45 HN61       -5.2619   -3.7766   -0.9586 H         1 ACP         0.4211
     46 HN62       -6.4834   -2.5990   -1.3590 H         1 ACP         0.4211
     47 H2         -4.8317    1.4071    0.1930 H         1 ACP         0.0375
@<TRIPOS>BOND
     1    1    2 2
     2    1    3 1
     3    1    4 1
     4    1    8 1
     5    4   32 1
     6    5    6 2
     7    5    7 1
     8    5    8 1
     9    5   12 1
    10    7   33 1
    11    8   34 1
    12    8   35 1
    13    9   10 2
    14    9   11 1
    15    9   12 1
    16    9   13 1
    17   13   14 1
    18   14   15 1
    19   14   36 1
    20   14   37 1
    21   15   16 1
    22   15   17 1
    23   15   38 1
    24   16   21 1
    25   17   18 1
    26   17   19 1
    27   17   39 1
    28   18   40 1
    29   19   20 1
    30   19   21 1
    31   19   41 1
    32   20   42 1
    33   21   22 1
    34   21   43 1
    35   22   23 ar
    36   22   31 ar
    37   23   24 ar
    38   23   44 1
    39   24   25 ar
    40   25   26 ar
    41   25   31 ar
    42   26   27 1
    43   26   28 ar
    44   27   45 1
    45   27   46 1
    46   28   29 ar
    47   29   30 ar
    48   29   47 1
    49   30   31 ar
@<TRIPOS>SUBSTRUCTURE
     1 ACP         1 GROUP 0 A     ****
@<TRIPOS>MOLECULE
[[[5-(6-aminopurin-9-yl)-3,4-dihydroxy-tetrahydrofuran-2-yl]methoxy-oxido-phosphoryl]oxy-hydroxy-phosphoryl]methyl-hydroxy-phosphinate
   47    49     1     0     0
SMALL
USER_CHARGES

@<TRIPOS>ATOM
      1 PG         -2.2610   -3.1764   -5.5024 P.3       1 ACP         1.3516
      2 O1G        -1.1996   -2.3036   -6.1309 O.co2     1 ACP        -0.8379
      3 O2G        -3.6078   -3.4014   -6.1499 O.co2     1 ACP        -0.8379
      4 O3G        -1.6087   -4.6149   -5.0959 O.3       1 ACP        -0.7980
      5 PB         -3.1417   -0.8524   -3.4585 P.3       1 ACP         1.7688
      6 O1B        -3.3260   -0.5292   -2.0060 O.2       1 ACP        -0.9167
      7 O2B        -4.4765   -0.7158   -4.3592 O.3       1 ACP        -0.8201
      8 C3B        -2.5662   -2.5299   -3.7971 C.3       1 ACP        -0.6097
      9 PA         -1.9759    1.6544   -4.5130 P.3       1 ACP         1.5979
     10 O1A        -3.2901    2.1043   -5.1133 O.co2     1 ACP        -0.8617
     11 O2A        -0.6640    1.9759   -5.1952 O.co2     1 ACP        -0.8617
     12 O3A        -2.0574    0.0461   -4.2477 O.3       1 ACP        -0.8283
     13 O5'        -1.9207    2.1716   -2.9622 O.3       1 ACP        -0.5783
     14 C5'        -0.7794    1.8744   -2.1748 C.3       1 ACP         0.1980
     15 C4'        -0.9699    2.4597   -0.7819 C.3       1 ACP         0.0815
     16 O4'        -2.1475    1.8640   -0.2014 O.3       1 ACP        -0.4127
     17 C3'         0.1697    2.1347    0.1695 C.3       1 ACP         0.0890
     18 O3'         0.1809    3.0982    1.2223 O.3       1 ACP        -0.6221
     19 C2'        -0.2543    0.7880    0.7187 C.3       1 ACP         0.1067
     20 O2'         0.3606    0.4944    1.9582 O.3       1 ACP        -0.6053
     21 C1'        -1.7682    0.9516    0.8548 C.3       1 ACP         0.4223
     22 N9         -2.5926   -0.2553    0.7436 N.pl3     1 ACP        -0.6834
     23 C8         -2.2879   -1.3752    0.0161 C.ar      1 ACP         0.5614
     24 N7         -3.2214   -2.2987    0.1123 N.2       1 ACP        -0.5751
     25 C5         -4.1722   -1.7531    0.9377 C.ar      1 ACP        -0.2117
     26 C6         -5.3870   -2.2342    1.4159 C.ar      1 ACP         0.7177
     27 N6         -5.8433   -3.5142    1.0574 N.pl3     1 ACP        -0.9401
     28 N1         -6.1289   -1.4512    2.2356 N.ar      1 ACP        -0.8008
     29 C2         -5.6370   -0.2275    2.5461 C.ar      1 ACP         0.6565
     30 N3         -4.4810    0.3469    2.1476 N.ar      1 ACP        -0.7061
     31 C4         -3.7996   -0.4810    1.3417 C.ar      1 ACP         0.5715
     32 HOG3       -1.2163   -5.1677   -5.8050 H         1 ACP         0.4226
     33 HOB2       -4.9255    0.1545   -4.4140 H         1 ACP         0.4482
     34 H3B1       -3.2763   -3.2238   -3.3333 H         1 ACP         0.1012
     35 H3B2       -1.6116   -2.6514   -3.2739 H         1 ACP         0.1012
     36 H5'1       -0.6601    0.7877   -2.1202 H         1 ACP         0.0481
     37 H5'2        0.1042    2.3072   -2.6544 H         1 ACP         0.0481
     38 H4'        -1.1469    3.5409   -0.8522 H         1 ACP         0.0904
     39 H3'         1.1601    2.1310   -0.2934 H         1 ACP         0.0809
     40 HO3'        0.9173    2.8584    1.8048 H         1 ACP         0.4528
     41 H2'        -0.0024   -0.0091    0.0062 H         1 ACP         0.0594
     42 HO2'        0.0384   -0.3797    2.2403 H         1 ACP         0.4344
     43 H1'        -2.0584    1.4255    1.8301 H         1 ACP         0.1127
     44 H8         -1.3765   -1.4593   -0.5599 H         1 ACP         0.1050
     45 HN61       -5.3086   -4.0656    0.4134 H         1 ACP         0.4211
     46 HN62       -6.7426   -3.8233    1.3745 H         1 ACP         0.4211
     47 H2         -6.2570    0.3723    3.2040 H         1 ACP         0.0375
@<TRIPOS>BOND
     1    1    2 2
     2    1    3 1
     3    1    4 1
     4    1    8 1
     5    4   32 1
     6    5    6 2
     7    5    7 1
     8    5    8 1
     9    5   12 1
    10    7   33 1
    11    8   34 1
    12    8   35 1
    13    9   10 2
    14    9   11 1
    15    9   12 1
    16    9   13 1
    17   13   14 1
    18   14   15 1
    19   14   36 1
    20   14   37 1
    21   15   16 1
    22   15   17 1
    23   15   38 1
    24   16   21 1
    25   17   18 1
    26   17   19 1
    27   17   39 1
    28   18   40 1
    29   19   20 1
    30   19   21 1
    31   19   41 1
    32   20   42 1
    33   21   22 1
    34   21   43 1
    35   22   23 ar
    36   22   31 ar
    37   23   24 ar
    38   23   44 1
    39   24   25 ar
    40   25   26 ar
    41   25   31 ar
    42   26   27 1
    43   26   28 ar
    44   27   45 1
    45   27   46 1
    46   28   29 ar
    47   29   30 ar
    48   29   47 1
    49   30   31 ar
@<TRIPOS>SUBSTRUCTURE
     1 ACP         1 GROUP 0 A     ****
@<TRIPOS>MOLECULE
[[[5-(6-aminopurin-9-yl)-3,4-dihydroxy-tetrahydrofuran-2-yl]methoxy-oxido-phosphoryl]oxy-hydroxy-phosphoryl]methyl-hydroxy-phosphinate
   47    49     1     0     0
SMALL
USER_CHARGES

@<TRIPOS>ATOM
      1 PG          2.6865   -2.7876   -4.5968 P.3       1 ACP         1.3516
      2 O1G         4.1204   -2.5518   -5.0113 O.co2     1 ACP        -0.8379
      3 O2G         1.5250   -2.5322   -5.5292 O.co2     1 ACP        -0.8379
      4 O3G         2.5468   -4.2801   -3.9542 O.3       1 ACP        -0.7980
      5 PB          2.5650   -0.0102   -2.9765 P.3       1 ACP         1.7688
      6 O1B         3.9332    0.5066   -3.3071 O.2       1 ACP        -0.9167
      7 O2B         2.0399    0.3589   -1.4934 O.3       1 ACP        -0.8201
      8 C3B         2.3898   -1.8053   -3.0586 C.3       1 ACP        -0.6097
      9 PA          0.8118    1.9900   -4.2728 P.3       1 ACP         1.5979
     10 O1A        -0.4443    1.8534   -5.1054 O.co2     1 ACP        -0.8617
     11 O2A         1.9624    2.8520   -4.7450 O.co2     1 ACP        -0.8617
     12 O3A         1.3706    0.4935   -3.9385 O.3       1 ACP        -0.8283
     13 O5'         0.3757    2.4481   -2.7643 O.3       1 ACP        -0.5783
     14 C5'        -0.7794    1.8744   -2.1748 C.3       1 ACP         0.1980
     15 C4'        -0.9699    2.4597   -0.7819 C.3       1 ACP         0.0815
     16 O4'        -2.1475    1.8640   -0.2014 O.3       1 ACP        -0.4127
     17 C3'         0.1697    2.1347    0.1695 C.3       1 ACP         0.0890
     18 O3'         0.1809    3.0982    1.2223 O.3       1 ACP        -0.6221
     19 C2'        -0.2543    0.7880    0.7187 C.3       1 ACP         0.1067
     20 O2'         0.3606    0.4944    1.9582 O.3       1 ACP        -0.6053
     21 C1'        -1.7682    0.9516    0.8548 C.3       1 ACP         0.4223
     22 N9         -2.5926   -0.2553    0.7436 N.pl3     1 ACP        -0.6834
     23 C8         -3.1120   -0.7726   -0.4135 C.ar      1 ACP         0.5614
     24 N7         -3.8089   -1.8688   -0.1980 N.2       1 ACP        -0.5751
     25 C5         -3.7380   -2.0700    1.1576 C.ar      1 ACP        -0.2117
     26 C6         -4.2662   -3.0526    1.9890 C.ar      1 ACP         0.7177
     27 N6         -5.0420   -4.0987    1.4609 N.pl3     1 ACP        -0.9401
     28 N1         -4.0226   -2.9899    3.3202 N.ar      1 ACP        -0.8008
     29 C2         -3.2679   -1.9585    3.7704 C.ar      1 ACP         0.6565
     30 N3         -2.7045   -0.9514    3.0680 N.ar      1 ACP        -0.7061
     31 C4         -2.9852   -1.0761    1.7622 C.ar      1 ACP         0.5715
     32 HOG3        2.7774   -5.0532   -4.5123 H         1 ACP         0.4226
     33 HOB2        1.9521    1.3028   -1.2418 H         1 ACP         0.4482
     34 H3B1        1.3738   -2.0543   -2.7322 H         1 ACP         0.1012
     35 H3B2        3.0768   -2.2271   -2.3172 H         1 ACP         0.1012
     36 H5'1       -1.6463    2.0967   -2.8051 H         1 ACP         0.0481
     37 H5'2       -0.6469    0.7893   -2.1194 H         1 ACP         0.0481
     38 H4'        -1.1469    3.5409   -0.8522 H         1 ACP         0.0904
     39 H3'         1.1601    2.1310   -0.2934 H         1 ACP         0.0809
     40 HO3'        0.9173    2.8584    1.8048 H         1 ACP         0.4528
     41 H2'        -0.0024   -0.0091    0.0062 H         1 ACP         0.0594
     42 HO2'        0.0384   -0.3797    2.2403 H         1 ACP         0.4344
     43 H1'        -2.0584    1.4255    1.8301 H         1 ACP         0.1127
     44 H8         -2.9491   -0.3098   -1.3772 H         1 ACP         0.1050
     45 HN61       -5.2544   -4.1089    0.4813 H         1 ACP         0.4211
     46 HN62       -5.4523   -4.7699    2.0823 H         1 ACP         0.4211
     47 H2         -3.0933   -1.9395    4.8410 H         1 ACP         0.0375
@<TRIPOS>BOND
     1    1    2 2
     2    1    3 1
     3    1    4 1
     4    1    8 1
     5    4   32 1
     6    5    6 2
     7    5    7 1
     8    5    8 1
     9    5   12 1
    10    7   33 1
    11    8   34 1
    12    8   35 1
    13    9   10 2
    14    9   11 1
    15    9   12 1
    16    9   13 1
    17   13   14 1
    18   14   15 1
    19   14   36 1
    20   14   37 1
    21   15   16 1
    22   15   17 1
    23   15   38 1
    24   16   21 1
    25   17   18 1
    26   17   19 1
    27   17   39 1
    28   18   40 1
    29   19   20 1
    30   19   21 1
    31   19   41 1
    32   20   42 1
    33   21   22 1
    34   21   43 1
    35   22   23 ar
    36   22   31 ar
    37   23   24 ar
    38   23   44 1
    39   24   25 ar
    40   25   26 ar
    41   25   31 ar
    42   26   27 1
    43   26   28 ar
    44   27   45 1
    45   27   46 1
    46   28   29 ar
    47   29   30 ar
    48   29   47 1
    49   30   31 ar
@<TRIPOS>SUBSTRUCTURE
     1 ACP         1 GROUP 0 A     ****
@<TRIPOS>MOLECULE
[[[5-(6-aminopurin-9-yl)-3,4-dihydroxy-tetrahydrofuran-2-yl]methoxy-oxido-phosphoryl]oxy-hydroxy-phosphoryl]methyl-hydroxy-phosphinate
   47    49     1     0     0
SMALL
USER_CHARGES

@<TRIPOS>ATOM
      1 PG         -6.2572   -0.1755   -3.5160 P.3       1 ACP         1.3516
      2 O1G        -7.4389   -0.0668   -4.4514 O.co2     1 ACP        -0.8379
      3 O2G        -5.5667    1.0410   -2.9440 O.co2     1 ACP        -0.8379
      4 O3G        -6.6152   -1.2123   -2.3090 O.3       1 ACP        -0.7980
      5 PB         -3.3720   -1.5952   -3.6347 P.3       1 ACP         1.7688
      6 O1B        -2.4738   -2.4327   -4.4950 O.2       1 ACP        -0.9167
      7 O2B        -3.7595   -2.2566   -2.2120 O.3       1 ACP        -0.8201
      8 C3B        -4.9712   -1.1932   -4.3700 C.3       1 ACP        -0.6097
      9 PA         -2.3606    1.1373   -4.1506 P.3       1 ACP         1.5979
     10 O1A        -3.5969    1.6919   -4.8243 O.co2     1 ACP        -0.8617
     11 O2A        -1.1410    0.7599   -4.9629 O.co2     1 ACP        -0.8617
     12 O3A        -2.8047   -0.1379   -3.2340 O.3       1 ACP        -0.8283
     13 O5'        -1.9207    2.1716   -2.9622 O.3       1 ACP        -0.5783
     14 C5'        -0.7794    1.8744   -2.1748 C.3       1 ACP         0.1980
     15 C4'        -0.9699    2.4597   -0.7819 C.3       1 ACP         0.0815
     16 O4'        -2.1475    1.8640   -0.2014 O.3       1 ACP        -0.4127
     17 C3'         0.1697    2.1347    0.1695 C.3       1 ACP         0.0890
     18 O3'         0.1809    3.0982    1.2223 O.3       1 ACP        -0.6221
     19 C2'        -0.2543    0.7880    0.7187 C.3       1 ACP         0.1067
     20 O2'         0.3606    0.4944    1.9582 O.3       1 ACP        -0.6053
     21 C1'        -1.7682    0.9516    0.8548 C.3       1 ACP         0.4223
     22 N9         -2.5926   -0.2553    0.7436 N.pl3     1 ACP        -0.6834
     23 C8         -2.2879   -1.3752    0.0161 C.ar      1 ACP         0.5614
     24 N7         -3.2214   -2.2987    0.1123 N.2       1 ACP        -0.5751
     25 C5         -4.1722   -1.7531    0.9377 C.ar      1 ACP        -0.2117
     26 C6         -5.3870   -2.2342    1.4159 C.ar      1 ACP         0.7177
     27 N6         -5.8433   -3.5142    1.0574 N.pl3     1 ACP        -0.9401
     28 N1         -6.1289   -1.4512    2.2356 N.ar      1 ACP        -0.8008
     29 C2         -5.6370   -0.2275    2.5461 C.ar      1 ACP         0.6565
     30 N3         -4.4810    0.3469    2.1476 N.ar      1 ACP        -0.7061
     31 C4         -3.7996   -0.4810    1.3417 C.ar      1 ACP         0.5715
     32 HOG3       -7.3781   -1.0076   -1.7274 H         1 ACP         0.4226
     33 HOB2       -3.0427   -2.4772   -1.5797 H         1 ACP         0.4482
     34 H3B1       -5.4601   -2.1372   -4.6361 H         1 ACP         0.1012
     35 H3B2       -4.7674   -0.6631   -5.3065 H         1 ACP         0.1012
     36 H5'1       -0.6601    0.7877   -2.1202 H         1 ACP         0.0481
     37 H5'2        0.1042    2.3072   -2.6544 H         1 ACP         0.0481
     38 H4'        -1.1469    3.5409   -0.8522 H         1 ACP         0.0904
     39 H3'         1.1601    2.1310   -0.2934 H         1 ACP         0.0809
     40 HO3'        0.9173    2.8584    1.8048 H         1 ACP         0.4528
     41 H2'        -0.0024   -0.0091    0.0062 H         1 ACP         0.0594
     42 HO2'        0.0384   -0.3797    2.2403 H         1 ACP         0.4344
     43 H1'        -2.0584    1.4255    1.8301 H         1 ACP         0.1127
     44 H8         -1.3765   -1.4593   -0.5599 H         1 ACP         0.1050
     45 HN61       -5.3086   -4.0656    0.4134 H         1 ACP         0.4211
     46 HN62       -6.7426   -3.8233    1.3745 H         1 ACP         0.4211
     47 H2         -6.2570    0.3723    3.2040 H         1 ACP         0.0375
@<TRIPOS>BOND
     1    1    2 2
     2    1    3 1
     3    1    4 1
     4    1    8 1
     5    4   32 1
     6    5    6 2
     7    5    7 1
     8    5    8 1
     9    5   12 1
    10    7   33 1
    11    8   34 1
    12    8   35 1
    13    9   10 2
    14    9   11 1
    15    9   12 1
    16    9   13 1
    17   13   14 1
    18   14   15 1
    19   14   36 1
    20   14   37 1
    21   15   16 1
    22   15   17 1
    23   15   38 1
    24   16   21 1
    25   17   18 1
    26   17   19 1
    27   17   39 1
    28   18   40 1
    29   19   20 1
    30   19   21 1
    31   19   41 1
    32   20   42 1
    33   21   22 1
    34   21   43 1
    35   22   23 ar
    36   22   31 ar
    37   23   24 ar
    38   23   44 1
    39   24   25 ar
    40   25   26 ar
    41   25   31 ar
    42   26   27 1
    43   26   28 ar
    44   27   45 1
    45   27   46 1
    46   28   29 ar
    47   29   30 ar
    48   29   47 1
    49   30   31 ar
@<TRIPOS>SUBSTRUCTURE
     1 ACP         1 GROUP 0 A     ****
@<TRIPOS>MOLECULE
[[[5-(6-aminopurin-9-yl)-3,4-dihydroxy-tetrahydrofuran-2-yl]methoxy-oxido-phosphoryl]oxy-hydroxy-phosphoryl]methyl-hydroxy-phosphinate
   47    49     1     0     0
SMALL
USER_CHARGES

@<TRIPOS>ATOM
      1 PG          2.6865   -2.7876   -4.5968 P.3       1 ACP         1.3516
      2 O1G         4.1204   -2.5518   -5.0113 O.co2     1 ACP        -0.8379
      3 O2G         1.5250   -2.5322   -5.5292 O.co2     1 ACP        -0.8379
      4 O3G         2.5468   -4.2801   -3.9542 O.3       1 ACP        -0.7980
      5 PB          2.5650   -0.0102   -2.9765 P.3       1 ACP         1.7688
      6 O1B         3.9332    0.5066   -3.3071 O.2       1 ACP        -0.9167
      7 O2B         2.0399    0.3589   -1.4934 O.3       1 ACP        -0.8201
      8 C3B         2.3898   -1.8053   -3.0586 C.3       1 ACP        -0.6097
      9 PA          0.8118    1.9900   -4.2728 P.3       1 ACP         1.5979
     10 O1A        -0.4443    1.8534   -5.1054 O.co2     1 ACP        -0.8617
     11 O2A         1.9624    2.8520   -4.7450 O.co2     1 ACP        -0.8617
     12 O3A         1.3706    0.4935   -3.9385 O.3       1 ACP        -0.8283
     13 O5'         0.3757    2.4481   -2.7643 O.3       1 ACP        -0.5783
     14 C5'        -0.7794    1.8744   -2.1748 C.3       1 ACP         0.1980
     15 C4'        -0.9699    2.4597   -0.7819 C.3       1 ACP         0.0815
     16 O4'        -2.1475    1.8640   -0.2014 O.3       1 ACP        -0.4127
     17 C3'         0.1697    2.1347    0.1695 C.3       1 ACP         0.0890
     18 O3'         0.1809    3.0982    1.2223 O.3       1 ACP        -0.6221
     19 C2'        -0.2543    0.7880    0.7187 C.3       1 ACP         0.1067
     20 O2'         0.3606    0.4944    1.9582 O.3       1 ACP        -0.6053
     21 C1'        -1.7682    0.9516    0.8548 C.3       1 ACP         0.4223
     22 N9         -2.5926   -0.2553    0.7436 N.pl3     1 ACP        -0.6834
     23 C8         -2.9796   -1.0650    1.7783 C.ar      1 ACP         0.5614
     24 N7         -3.7205   -2.0736    1.3689 N.2       1 ACP        -0.5751
     25 C5         -3.8171   -1.9102    0.0098 C.ar      1 ACP        -0.2117
     26 C6         -4.4622   -2.6452   -0.9798 C.ar      1 ACP         0.7177
     27 N6         -5.1910   -3.8019   -0.6548 N.pl3     1 ACP        -0.9401
     28 N1         -4.3799   -2.2309   -2.2672 N.ar      1 ACP        -0.8008
     29 C2         -3.6636   -1.1087   -2.5188 C.ar      1 ACP         0.6565
     30 N3         -2.9978   -0.3162   -1.6507 N.ar      1 ACP        -0.7061
     31 C4         -3.1216   -0.7837   -0.3994 C.ar      1 ACP         0.5715
     32 HOG3        2.7774   -5.0532   -4.5123 H         1 ACP         0.4226
     33 HOB2        1.9521    1.3028   -1.2418 H         1 ACP         0.4482
     34 H3B1        1.3738   -2.0543   -2.7322 H         1 ACP         0.1012
     35 H3B2        3.0768   -2.2271   -2.3172 H         1 ACP         0.1012
     36 H5'1       -1.6463    2.0967   -2.8051 H         1 ACP         0.0481
     37 H5'2       -0.6469    0.7893   -2.1194 H         1 ACP         0.0481
     38 H4'        -1.1469    3.5409   -0.8522 H         1 ACP         0.0904
     39 H3'         1.1601    2.1310   -0.2934 H         1 ACP         0.0809
     40 HO3'        0.9173    2.8584    1.8048 H         1 ACP         0.4528
     41 H2'        -0.0024   -0.0091    0.0062 H         1 ACP         0.0594
     42 HO2'        1.3225    0.4909    1.8095 H         1 ACP         0.4344
     43 H1'        -2.0584    1.4255    1.8301 H         1 ACP         0.1127
     44 H8         -2.6931   -0.8698    2.8026 H         1 ACP         0.1050
     45 HN61       -5.2060   -4.1247    0.2941 H         1 ACP         0.4211
     46 HN62       -5.6089   -4.3432   -1.3878 H         1 ACP         0.4211
     47 H2         -3.6188   -0.8065   -3.5598 H         1 ACP         0.0375
@<TRIPOS>BOND
     1    1    2 2
     2    1    3 1
     3    1    4 1
     4    1    8 1
     5    4   32 1
     6    5    6 2
     7    5    7 1
     8    5    8 1
     9    5   12 1
    10    7   33 1
    11    8   34 1
    12    8   35 1
    13    9   10 2
    14    9   11 1
    15    9   12 1
    16    9   13 1
    17   13   14 1
    18   14   15 1
    19   14   36 1
    20   14   37 1
    21   15   16 1
    22   15   17 1
    23   15   38 1
    24   16   21 1
    25   17   18 1
    26   17   19 1
    27   17   39 1
    28   18   40 1
    29   19   20 1
    30   19   21 1
    31   19   41 1
    32   20   42 1
    33   21   22 1
    34   21   43 1
    35   22   23 ar
    36   22   31 ar
    37   23   24 ar
    38   23   44 1
    39   24   25 ar
    40   25   26 ar
    41   25   31 ar
    42   26   27 1
    43   26   28 ar
    44   27   45 1
    45   27   46 1
    46   28   29 ar
    47   29   30 ar
    48   29   47 1
    49   30   31 ar
@<TRIPOS>SUBSTRUCTURE
     1 ACP         1 GROUP 0 A     ****
@<TRIPOS>MOLECULE
[[[5-(6-aminopurin-9-yl)-3,4-dihydroxy-tetrahydrofuran-2-yl]methoxy-oxido-phosphoryl]oxy-hydroxy-phosphoryl]methyl-hydroxy-phosphinate
   47    49     1     0     0
SMALL
USER_CHARGES

@<TRIPOS>ATOM
      1 PG          8.1912    1.7689   -4.4605 P.3       1 ACP         1.3516
      2 O1G         8.7781    1.4610   -3.1025 O.co2     1 ACP        -0.8379
      3 O2G         8.6182    2.9715   -5.2699 O.co2     1 ACP        -0.8379
      4 O3G         8.2607    0.4345   -5.3958 O.3       1 ACP        -0.7980
      5 PB          5.5322    3.0358   -3.1650 P.3       1 ACP         1.7688
      6 O1B         4.0358    2.9423   -3.1481 O.2       1 ACP        -0.9167
      7 O2B         6.1178    4.4678   -3.6319 O.3       1 ACP        -0.8201
      8 C3B         6.3554    1.8589   -4.2590 C.3       1 ACP        -0.6097
      9 PA          6.1595    3.5245   -0.3149 P.3       1 ACP         1.5979
     10 O1A         6.3881    5.0035   -0.5385 O.co2     1 ACP        -0.8617
     11 O2A         6.9730    2.7625    0.7085 O.co2     1 ACP        -0.8617
     12 O3A         6.2706    2.7650   -1.7552 O.3       1 ACP        -0.8283
     13 O5'         4.5669    3.2940   -0.0211 O.3       1 ACP        -0.5783
     14 C5'         4.0922    1.9801    0.2227 C.3       1 ACP         0.1980
     15 C4'         2.5944    2.0310    0.4653 C.3       1 ACP         0.0815
     16 O4'         1.9327    2.5740   -0.6889 O.3       1 ACP        -0.4127
     17 C3'         1.9685    0.6634    0.6767 C.3       1 ACP         0.0890
     18 O3'         2.1425    0.1975    1.9977 O.3       1 ACP        -0.6221
     19 C2'         0.5176    0.9128    0.3099 C.3       1 ACP         0.1067
     20 O2'        -0.2103    1.4454    1.4152 O.3       1 ACP        -0.6053
     21 C1'         0.6219    1.9765   -0.7844 C.3       1 ACP         0.4223
     22 N9          0.4237    1.4496   -2.1357 N.pl3     1 ACP        -0.6834
     23 C8         -0.7736    1.3475   -2.7932 C.ar      1 ACP         0.5614
     24 N7         -0.6356    0.8373   -3.9991 N.2       1 ACP        -0.5751
     25 C5          0.7095    0.5981   -4.1281 C.ar      1 ACP        -0.2117
     26 C6          1.4733    0.0704   -5.1643 C.ar      1 ACP         0.7177
     27 N6          0.8693   -0.3355   -6.3666 N.pl3     1 ACP        -0.9401
     28 N1          2.8130   -0.0482   -5.0009 N.ar      1 ACP        -0.8008
     29 C2          3.3380    0.3602   -3.8204 C.ar      1 ACP         0.6565
     30 N3          2.7052    0.8841   -2.7480 N.ar      1 ACP        -0.7061
     31 C4          1.3867    0.9726   -2.9785 C.ar      1 ACP         0.5715
     32 HOG3        9.1391    0.0411   -5.5851 H         1 ACP         0.4226
     33 HOB2        5.8835    5.2681   -3.1155 H         1 ACP         0.4482
     34 H3B1        5.9473    2.0014   -5.2661 H         1 ACP         0.1012
     35 H3B2        6.0577    0.8570   -3.9317 H         1 ACP         0.1012
     36 H5'1        4.3180    1.3550   -0.6470 H         1 ACP         0.0481
     37 H5'2        4.6085    1.5739    1.0983 H         1 ACP         0.0481
     38 H4'         2.3751    2.7029    1.3156 H         1 ACP         0.0904
     39 H3'         2.4336   -0.1217   -0.0015 H         1 ACP         0.0809
     40 HO3'        3.0987    0.1465    2.1461 H         1 ACP         0.4528
     41 H2'         0.0316    0.0155   -0.0339 H         1 ACP         0.0594
     42 HO2'       -0.1608    0.7921    2.1351 H         1 ACP         0.4344
     43 H1'        -0.1474    2.7798   -0.6651 H         1 ACP         0.1127
     44 H8         -1.7070    1.6599   -2.3451 H         1 ACP         0.1050
     45 HN61        1.4426   -0.6691   -7.1181 H         1 ACP         0.4211
     46 HN62       -0.1156   -0.1989   -6.4937 H         1 ACP         0.4211
     47 H2          4.4130    0.2505   -3.7241 H         1 ACP         0.0375
@<TRIPOS>BOND
     1    1    2 2
     2    1    3 1
     3    1    4 1
     4    1    8 1
     5    4   32 1
     6    5    6 2
     7    5    7 1
     8    5    8 1
     9    5   12 1
    10    7   33 1
    11    8   34 1
    12    8   35 1
    13    9   10 2
    14    9   11 1
    15    9   12 1
    16    9   13 1
    17   13   14 1
    18   14   15 1
    19   14   36 1
    20   14   37 1
    21   15   16 1
    22   15   17 1
    23   15   38 1
    24   16   21 1
    25   17   18 1
    26   17   19 1
    27   17   39 1
    28   18   40 1
    29   19   20 1
    30   19   21 1
    31   19   41 1
    32   20   42 1
    33   21   22 1
    34   21   43 1
    35   22   23 ar
    36   22   31 ar
    37   23   24 ar
    38   23   44 1
    39   24   25 ar
    40   25   26 ar
    41   25   31 ar
    42   26   27 1
    43   26   28 ar
    44   27   45 1
    45   27   46 1
    46   28   29 ar
    47   29   30 ar
    48   29   47 1
    49   30   31 ar
@<TRIPOS>SUBSTRUCTURE
     1 ACP         1 GROUP 0 A     ****
@<TRIPOS>MOLECULE
[[[5-(6-aminopurin-9-yl)-3,4-dihydroxy-tetrahydrofuran-2-yl]methoxy-oxido-phosphoryl]oxy-hydroxy-phosphoryl]methyl-hydroxy-phosphinate
   47    49     1     0     0
SMALL
USER_CHARGES

@<TRIPOS>ATOM
      1 PG         -6.2572   -0.1755   -3.5160 P.3       1 ACP         1.3516
      2 O1G        -7.4389   -0.0668   -4.4514 O.co2     1 ACP        -0.8379
      3 O2G        -5.5667    1.0410   -2.9440 O.co2     1 ACP        -0.8379
      4 O3G        -6.6152   -1.2123   -2.3090 O.3       1 ACP        -0.7980
      5 PB         -3.3720   -1.5952   -3.6347 P.3       1 ACP         1.7688
      6 O1B        -2.4738   -2.4327   -4.4950 O.2       1 ACP        -0.9167
      7 O2B        -3.7595   -2.2566   -2.2120 O.3       1 ACP        -0.8201
      8 C3B        -4.9712   -1.1932   -4.3700 C.3       1 ACP        -0.6097
      9 PA         -2.3606    1.1373   -4.1506 P.3       1 ACP         1.5979
     10 O1A        -3.5969    1.6919   -4.8243 O.co2     1 ACP        -0.8617
     11 O2A        -1.1410    0.7599   -4.9629 O.co2     1 ACP        -0.8617
     12 O3A        -2.8047   -0.1379   -3.2340 O.3       1 ACP        -0.8283
     13 O5'        -1.9207    2.1716   -2.9622 O.3       1 ACP        -0.5783
     14 C5'        -0.7794    1.8744   -2.1748 C.3       1 ACP         0.1980
     15 C4'        -0.9699    2.4597   -0.7819 C.3       1 ACP         0.0815
     16 O4'        -2.1475    1.8640   -0.2014 O.3       1 ACP        -0.4127
     17 C3'         0.1697    2.1347    0.1695 C.3       1 ACP         0.0890
     18 O3'         0.1809    3.0982    1.2223 O.3       1 ACP        -0.6221
     19 C2'        -0.2543    0.7880    0.7187 C.3       1 ACP         0.1067
     20 O2'         0.3606    0.4944    1.9582 O.3       1 ACP        -0.6053
     21 C1'        -1.7682    0.9516    0.8548 C.3       1 ACP         0.4223
     22 N9         -2.5926   -0.2553    0.7436 N.pl3     1 ACP        -0.6834
     23 C8         -3.5599   -0.4866   -0.1983 C.ar      1 ACP         0.5614
     24 N7         -4.1294   -1.6639   -0.0461 N.2       1 ACP        -0.5751
     25 C5         -3.5041   -2.2191    1.0420 C.ar      1 ACP        -0.2117
     26 C6         -3.6605   -3.4390    1.6925 C.ar      1 ACP         0.7177
     27 N6         -4.6108   -4.3735    1.2468 N.pl3     1 ACP        -0.9401
     28 N1         -2.8820   -3.7179    2.7657 N.ar      1 ACP        -0.8008
     29 C2         -1.9837   -2.7784    3.1481 C.ar      1 ACP         0.6565
     30 N3         -1.7408   -1.5668    2.6022 N.ar      1 ACP        -0.7061
     31 C4         -2.5438   -1.3578    1.5483 C.ar      1 ACP         0.5715
     32 HOG3       -7.3781   -1.0076   -1.7274 H         1 ACP         0.4226
     33 HOB2       -3.0427   -2.4772   -1.5797 H         1 ACP         0.4482
     34 H3B1       -5.4601   -2.1372   -4.6361 H         1 ACP         0.1012
     35 H3B2       -4.7674   -0.6631   -5.3065 H         1 ACP         0.1012
     36 H5'1       -0.6601    0.7877   -2.1202 H         1 ACP         0.0481
     37 H5'2        0.1042    2.3072   -2.6544 H         1 ACP         0.0481
     38 H4'        -1.1469    3.5409   -0.8522 H         1 ACP         0.0904
     39 H3'         1.1601    2.1310   -0.2934 H         1 ACP         0.0809
     40 HO3'        0.9173    2.8584    1.8048 H         1 ACP         0.4528
     41 H2'        -0.0024   -0.0091    0.0062 H         1 ACP         0.0594
     42 HO2'        0.0384   -0.3797    2.2403 H         1 ACP         0.4344
     43 H1'        -2.0584    1.4255    1.8301 H         1 ACP         0.1127
     44 H8         -3.8030    0.2355   -0.9657 H         1 ACP         0.1050
     45 HN61       -5.2130   -4.1372    0.4810 H         1 ACP         0.4211
     46 HN62       -4.7404   -5.2263    1.7576 H         1 ACP         0.4211
     47 H2         -1.3778   -3.0348    4.0107 H         1 ACP         0.0375
@<TRIPOS>BOND
     1    1    2 2
     2    1    3 1
     3    1    4 1
     4    1    8 1
     5    4   32 1
     6    5    6 2
     7    5    7 1
     8    5    8 1
     9    5   12 1
    10    7   33 1
    11    8   34 1
    12    8   35 1
    13    9   10 2
    14    9   11 1
    15    9   12 1
    16    9   13 1
    17   13   14 1
    18   14   15 1
    19   14   36 1
    20   14   37 1
    21   15   16 1
    22   15   17 1
    23   15   38 1
    24   16   21 1
    25   17   18 1
    26   17   19 1
    27   17   39 1
    28   18   40 1
    29   19   20 1
    30   19   21 1
    31   19   41 1
    32   20   42 1
    33   21   22 1
    34   21   43 1
    35   22   23 ar
    36   22   31 ar
    37   23   24 ar
    38   23   44 1
    39   24   25 ar
    40   25   26 ar
    41   25   31 ar
    42   26   27 1
    43   26   28 ar
    44   27   45 1
    45   27   46 1
    46   28   29 ar
    47   29   30 ar
    48   29   47 1
    49   30   31 ar
@<TRIPOS>SUBSTRUCTURE
     1 ACP         1 GROUP 0 A     ****
@<TRIPOS>MOLECULE
[[[5-(6-aminopurin-9-yl)-3,4-dihydroxy-tetrahydrofuran-2-yl]methoxy-oxido-phosphoryl]oxy-hydroxy-phosphoryl]methyl-hydroxy-phosphinate
   47    49     1     0     0
SMALL
USER_CHARGES

@<TRIPOS>ATOM
      1 PG          5.5433    2.4745   -5.8130 P.3       1 ACP         1.3516
      2 O1G         5.8887    3.8694   -6.2804 O.co2     1 ACP        -0.8379
      3 O2G         5.3270    1.3311   -6.7771 O.co2     1 ACP        -0.8379
      4 O3G         6.5963    2.0148   -4.6554 O.3       1 ACP        -0.7980
      5 PB          3.9523    3.5910   -3.2485 P.3       1 ACP         1.7688
      6 O1B         2.6297    3.5626   -2.5428 O.2       1 ACP        -0.9167
      7 O2B         4.4382    5.0580   -3.7215 O.3       1 ACP        -0.8201
      8 C3B         4.0291    2.6064   -4.7599 C.3       1 ACP        -0.6097
      9 PA          5.8656    3.5048   -0.9931 P.3       1 ACP         1.5979
     10 O1A         6.1538    4.9878   -1.0794 O.co2     1 ACP        -0.8617
     11 O2A         6.9514    2.5280   -0.5971 O.co2     1 ACP        -0.8617
     12 O3A         5.2105    3.0266   -2.4093 O.3       1 ACP        -0.8283
     13 O5'         4.5669    3.2940   -0.0211 O.3       1 ACP        -0.5783
     14 C5'         4.0922    1.9801    0.2227 C.3       1 ACP         0.1980
     15 C4'         2.5944    2.0310    0.4653 C.3       1 ACP         0.0815
     16 O4'         1.9327    2.5740   -0.6889 O.3       1 ACP        -0.4127
     17 C3'         1.9685    0.6634    0.6767 C.3       1 ACP         0.0890
     18 O3'         2.1425    0.1975    1.9977 O.3       1 ACP        -0.6221
     19 C2'         0.5176    0.9128    0.3099 C.3       1 ACP         0.1067
     20 O2'        -0.2103    1.4454    1.4152 O.3       1 ACP        -0.6053
     21 C1'         0.6219    1.9765   -0.7844 C.3       1 ACP         0.4223
     22 N9          0.4237    1.4496   -2.1357 N.pl3     1 ACP        -0.6834
     23 C8          1.4026    0.9717   -2.9660 C.ar      1 ACP         0.5614
     24 N7          0.9183    0.5619   -4.1197 N.2       1 ACP        -0.5751
     25 C5         -0.4330    0.7845   -4.0331 C.ar      1 ACP        -0.2117
     26 C6         -1.4794    0.5615   -4.9225 C.ar      1 ACP         0.7177
     27 N6         -1.2378    0.0044   -6.1899 N.pl3     1 ACP        -0.9401
     28 N1         -2.7406    0.8885   -4.5512 N.ar      1 ACP        -0.8008
     29 C2         -2.9113    1.4216   -3.3172 C.ar      1 ACP         0.6565
     30 N3         -1.9824    1.6843   -2.3721 N.ar      1 ACP        -0.7061
     31 C4         -0.7613    1.3370   -2.8054 C.ar      1 ACP         0.5715
     32 HOG3        7.5504    1.9755   -4.8799 H         1 ACP         0.4226
     33 HOB2        4.5690    5.7561   -3.0449 H         1 ACP         0.4482
     34 H3B1        3.2290    2.9543   -5.4230 H         1 ACP         0.1012
     35 H3B2        3.7882    1.5749   -4.4812 H         1 ACP         0.1012
     36 H5'1        4.3180    1.3550   -0.6470 H         1 ACP         0.0481
     37 H5'2        4.6085    1.5739    1.0983 H         1 ACP         0.0481
     38 H4'         2.3751    2.7029    1.3156 H         1 ACP         0.0904
     39 H3'         2.4336   -0.1217   -0.0015 H         1 ACP         0.0809
     40 HO3'        3.0987    0.1465    2.1461 H         1 ACP         0.4528
     41 H2'         0.0316    0.0155   -0.0339 H         1 ACP         0.0594
     42 HO2'       -1.1270    1.5823    1.1180 H         1 ACP         0.4344
     43 H1'        -0.1474    2.7798   -0.6651 H         1 ACP         0.1127
     44 H8          2.4442    0.9470   -2.6763 H         1 ACP         0.1050
     45 HN61       -0.2955   -0.1901   -6.4713 H         1 ACP         0.4211
     46 HN62       -1.9987   -0.1045   -6.8334 H         1 ACP         0.4211
     47 H2         -3.9335    1.6716   -3.0534 H         1 ACP         0.0375
@<TRIPOS>BOND
     1    1    2 2
     2    1    3 1
     3    1    4 1
     4    1    8 1
     5    4   32 1
     6    5    6 2
     7    5    7 1
     8    5    8 1
     9    5   12 1
    10    7   33 1
    11    8   34 1
    12    8   35 1
    13    9   10 2
    14    9   11 1
    15    9   12 1
    16    9   13 1
    17   13   14 1
    18   14   15 1
    19   14   36 1
    20   14   37 1
    21   15   16 1
    22   15   17 1
    23   15   38 1
    24   16   21 1
    25   17   18 1
    26   17   19 1
    27   17   39 1
    28   18   40 1
    29   19   20 1
    30   19   21 1
    31   19   41 1
    32   20   42 1
    33   21   22 1
    34   21   43 1
    35   22   23 ar
    36   22   31 ar
    37   23   24 ar
    38   23   44 1
    39   24   25 ar
    40   25   26 ar
    41   25   31 ar
    42   26   27 1
    43   26   28 ar
    44   27   45 1
    45   27   46 1
    46   28   29 ar
    47   29   30 ar
    48   29   47 1
    49   30   31 ar
@<TRIPOS>SUBSTRUCTURE
     1 ACP         1 GROUP 0 A     ****
@<TRIPOS>MOLECULE
[[[5-(6-aminopurin-9-yl)-3,4-dihydroxy-tetrahydrofuran-2-yl]methoxy-oxido-phosphoryl]oxy-hydroxy-phosphoryl]methyl-hydroxy-phosphinate
   47    49     1     0     0
SMALL
USER_CHARGES

@<TRIPOS>ATOM
      1 PG          4.9216   -1.2580    3.6241 P.3       1 ACP         1.3516
      2 O1G         4.0261   -0.2332    2.9675 O.co2     1 ACP        -0.8379
      3 O2G         6.1330   -0.8669    4.4387 O.co2     1 ACP        -0.8379
      4 O3G         4.0098   -2.3059    4.4788 O.3       1 ACP        -0.7980
      5 PB          6.4402   -1.8894    0.8584 P.3       1 ACP         1.7688
      6 O1B         6.8043   -2.9882   -0.0946 O.2       1 ACP        -0.9167
      7 O2B         7.6975   -1.0973    1.4937 O.3       1 ACP        -0.8201
      8 C3B         5.4928   -2.4174    2.3018 C.3       1 ACP        -0.6097
      9 PA          5.7603    0.3294   -0.9773 P.3       1 ACP         1.5979
     10 O1A         5.7760   -0.4584   -2.2692 O.co2     1 ACP        -0.8617
     11 O2A         6.9041    1.2541   -0.6217 O.co2     1 ACP        -0.8617
     12 O3A         5.5152   -0.7119    0.2552 O.3       1 ACP        -0.8283
     13 O5'         4.3515    1.1573   -0.9028 O.3       1 ACP        -0.5783
     14 C5'         4.0922    1.9801    0.2227 C.3       1 ACP         0.1980
     15 C4'         2.5944    2.0310    0.4653 C.3       1 ACP         0.0815
     16 O4'         1.9327    2.5740   -0.6889 O.3       1 ACP        -0.4127
     17 C3'         1.9685    0.6634    0.6767 C.3       1 ACP         0.0890
     18 O3'         2.1425    0.1975    1.9977 O.3       1 ACP        -0.6221
     19 C2'         0.5176    0.9128    0.3099 C.3       1 ACP         0.1067
     20 O2'        -0.2103    1.4454    1.4152 O.3       1 ACP        -0.6053
     21 C1'         0.6219    1.9765   -0.7844 C.3       1 ACP         0.4223
     22 N9          0.4237    1.4496   -2.1357 N.pl3     1 ACP        -0.6834
     23 C8          1.4026    0.9717   -2.9660 C.ar      1 ACP         0.5614
     24 N7          0.9183    0.5619   -4.1197 N.2       1 ACP        -0.5751
     25 C5         -0.4330    0.7845   -4.0331 C.ar      1 ACP        -0.2117
     26 C6         -1.4794    0.5615   -4.9225 C.ar      1 ACP         0.7177
     27 N6         -1.2378    0.0044   -6.1899 N.pl3     1 ACP        -0.9401
     28 N1         -2.7406    0.8885   -4.5512 N.ar      1 ACP        -0.8008
     29 C2         -2.9113    1.4216   -3.3172 C.ar      1 ACP         0.6565
     30 N3         -1.9824    1.6843   -2.3721 N.ar      1 ACP        -0.7061
     31 C4         -0.7613    1.3370   -2.8054 C.ar      1 ACP         0.5715
     32 HOG3        3.4529   -1.9558    5.2065 H         1 ACP         0.4226
     33 HOB2        8.3172   -0.6305    0.8936 H         1 ACP         0.4482
     34 H3B1        6.0718   -3.1958    2.8116 H         1 ACP         0.1012
     35 H3B2        4.5790   -2.8913    1.9276 H         1 ACP         0.1012
     36 H5'1        4.6070    1.5616    1.0933 H         1 ACP         0.0481
     37 H5'2        4.4825    2.9835    0.0252 H         1 ACP         0.0481
     38 H4'         2.3751    2.7029    1.3156 H         1 ACP         0.0904
     39 H3'         2.4336   -0.1217   -0.0015 H         1 ACP         0.0809
     40 HO3'        1.7160   -0.6716    2.0397 H         1 ACP         0.4528
     41 H2'         0.0316    0.0155   -0.0339 H         1 ACP         0.0594
     42 HO2'       -0.1608    0.7921    2.1351 H         1 ACP         0.4344
     43 H1'        -0.1474    2.7798   -0.6651 H         1 ACP         0.1127
     44 H8          2.4442    0.9470   -2.6763 H         1 ACP         0.1050
     45 HN61       -0.2955   -0.1901   -6.4713 H         1 ACP         0.4211
     46 HN62       -1.9987   -0.1045   -6.8334 H         1 ACP         0.4211
     47 H2         -3.9335    1.6716   -3.0534 H         1 ACP         0.0375
@<TRIPOS>BOND
     1    1    2 2
     2    1    3 1
     3    1    4 1
     4    1    8 1
     5    4   32 1
     6    5    6 2
     7    5    7 1
     8    5    8 1
     9    5   12 1
    10    7   33 1
    11    8   34 1
    12    8   35 1
    13    9   10 2
    14    9   11 1
    15    9   12 1
    16    9   13 1
    17   13   14 1
    18   14   15 1
    19   14   36 1
    20   14   37 1
    21   15   16 1
    22   15   17 1
    23   15   38 1
    24   16   21 1
    25   17   18 1
    26   17   19 1
    27   17   39 1
    28   18   40 1
    29   19   20 1
    30   19   21 1
    31   19   41 1
    32   20   42 1
    33   21   22 1
    34   21   43 1
    35   22   23 ar
    36   22   31 ar
    37   23   24 ar
    38   23   44 1
    39   24   25 ar
    40   25   26 ar
    41   25   31 ar
    42   26   27 1
    43   26   28 ar
    44   27   45 1
    45   27   46 1
    46   28   29 ar
    47   29   30 ar
    48   29   47 1
    49   30   31 ar
@<TRIPOS>SUBSTRUCTURE
     1 ACP         1 GROUP 0 A     ****
