ACP
  CCTOOLS-0326171057

 49 51  0  0  1  0  0  0  0  0999 V2000
    0.8550   23.2630   12.2680 P   0  0  0  0  0
    0.2610   24.0670   11.1550 O   0  0  0  0  0
    1.5460   24.2690   13.3220 O   0  0  0  0  0
   -0.1310   22.3590   12.9100 O   0  0  0  0  0
    3.9600   22.9890   11.4430 P   0  0  0  0  0
    4.3120   23.6160   12.7350 O   0  0  0  0  0
    3.9240   23.9590   10.3010 O   0  0  0  0  0
    2.2840   22.2700   11.6710 C   0  0  0  0  0
    5.7430   20.7430   12.1060 P   0  0  0  0  0
    4.8310   20.2740   13.1830 O   0  0  0  0  0
    7.0060   21.2900   12.6600 O   0  0  0  0  0
    5.0120   21.8360   11.1810 O   0  0  0  0  0
    6.0310   19.5600   11.0600 O   0  0  0  0  0
    4.9790   19.0950   10.1930 C   0  0  0  0  0
    5.2560   17.6540    9.8080 C   0  0  0  0  0
    6.3740   17.6320    8.8930 O   0  0  0  0  0
    5.6520   16.8010   11.0140 C   0  0  0  0  0
    5.2040   15.4480   10.8610 O   0  0  0  0  0
    7.1700   16.9250   11.0340 C   0  0  0  0  0
    7.8570   15.9360   11.8240 O   0  0  0  0  0
    7.4740   16.9460    9.5320 C   0  0  0  0  0
    8.7090   17.7200    9.2130 N   0  0  0  0  0
    8.8950   19.0190    9.4210 C   0  0  0  0  0
   10.1830   19.2940    9.1830 N   0  0  0  0  0
   10.7990   18.1770    8.8190 C   0  0  0  0  0
   12.1150   17.8560    8.4630 C   0  0  0  0  0
   13.1040   18.7320    8.5870 N   0  0  0  0  0
   12.3770   16.5790    8.1080 N   0  0  0  0  0
   11.4290   15.6450    8.1140 C   0  0  0  0  0
   10.2040   15.9280    8.4830 N   0  0  0  0  0
    9.8490   17.1740    8.8270 C   0  0  0  0  0
    1.9230   23.7580   14.0280 H   0  0  0  0  0
    0.2460   21.8480   13.6160 H   0  0  0  0  0
    3.6970   23.5560    9.4700 H   0  0  0  0  0
    2.3850   21.3870   12.3440 H   0  0  0  0  0
    1.9860   21.7970   10.7050 H   0  0  0  0  0
    7.5880   21.5890   11.9720 H   0  0  0  0  0
    3.9670   19.2260   10.6440 H   0  0  0  0  0
    4.8400   19.7520    9.3030 H   0  0  0  0  0
    4.3230   17.2400    9.3590 H   0  0  0  0  0
    5.1890   17.1320   11.9730 H   0  0  0  0  0
    5.4500   14.9180   11.6100 H   0  0  0  0  0
    7.5540   17.8260   11.5650 H   0  0  0  0  0
    8.8030   16.0130   11.8360 H   0  0  0  0  0
    7.6150   15.8950    9.1840 H   0  0  0  0  0
    8.1200   19.7380    9.7340 H   0  0  0  0  0
   14.0620   18.4980    8.3270 H   0  0  0  0  0
   13.1120   19.0590    9.5520 H   0  0  0  0  0
   11.6640   14.6120    7.8060 H   0  0  0  0  0
  1  2  2  0  0  0
  1  3  1  0  0  0
  1  4  1  0  0  0
  1  8  1  0  0  0
  3 32  1  0  0  0
  4 33  1  0  0  0
  5  6  2  0  0  0
  5  7  1  0  0  0
  5  8  1  0  0  0
  5 12  1  0  0  0
  7 34  1  0  0  0
  8 35  1  0  0  0
  8 36  1  0  0  0
  9 10  2  0  0  0
  9 11  1  0  0  0
  9 12  1  0  0  0
  9 13  1  0  0  0
 11 37  1  0  0  0
 13 14  1  0  0  0
 14 15  1  0  0  0
 14 38  1  0  0  0
 14 39  1  0  0  0
 15 16  1  0  0  0
 15 17  1  0  0  0
 15 40  1  0  0  0
 16 21  1  0  0  0
 17 18  1  0  0  0
 17 19  1  0  0  0
 17 41  1  0  0  0
 18 42  1  0  0  0
 19 20  1  0  0  0
 19 21  1  0  0  0
 19 43  1  0  0  0
 20 44  1  0  0  0
 21 22  1  0  0  0
 21 45  1  0  0  0
 22 23  1  0  0  0
 22 31  1  0  0  0
 23 24  2  0  0  0
 23 46  1  0  0  0
 24 25  1  0  0  0
 25 26  1  0  0  0
 25 31  2  0  0  0
 26 27  1  0  0  0
 26 28  2  0  0  0
 27 47  1  0  0  0
 27 48  1  0  0  0
 28 29  1  0  0  0
 29 30  2  0  0  0
 29 49  1  0  0  0
 30 31  1  0  0  0
M  END
$$$$
