@<TRIPOS>MOLECULE
[[5-(6-amino-1,8-dihydropurine-6,8-diylium-7-id-9-yl)-3,4-dihydroxy-tetrahydrofuran-2-yl]methoxy-hydroxy-phosphoryl]oxy-[[hydroxy(oxido)phosphoryl]methyl]phosphinate
   48    50     1     0     0
SMALL
USER_CHARGES

@<TRIPOS>ATOM
      1 PG         -2.2909    0.3307   -3.7037 P.3       1 ACP         1.3752
      2 O1G        -3.4771    1.1904   -3.3341 O.co2     1 ACP        -0.8816
      3 O2G        -1.2689   -0.1108   -2.6816 O.co2     1 ACP        -0.8816
      4 O3G        -2.8059   -0.9670   -4.5471 O.3       1 ACP        -0.7903
      5 PB          0.1518    0.5081   -5.8442 P.3       1 ACP         1.5257
      6 O1B         0.5854    1.4969   -6.9020 O.co2     1 ACP        -0.8730
      7 O2B        -0.1120   -0.9445   -6.1681 O.co2     1 ACP        -0.8730
      8 C3B        -1.3782    1.1860   -5.0622 C.3       1 ACP        -0.5822
      9 PA          2.7552    0.3900   -4.4169 P.3       1 ACP         1.7803
     10 O1A         3.6031    1.2984   -5.2588 O.2       1 ACP        -0.8736
     11 O2A         2.9489   -1.1853   -4.7315 O.3       1 ACP        -0.7984
     12 O3A         1.1622    0.6123   -4.5720 O.3       1 ACP        -0.7763
     13 O5'         3.0189    0.5129   -2.8246 O.3       1 ACP        -0.5927
     14 C5'         2.2816   -0.2918   -1.9206 C.3       1 ACP         0.1349
     15 C4'         2.7248    0.0226   -0.4980 C.3       1 ACP         0.1151
     16 O4'         2.4697    1.4219   -0.2462 O.3       1 ACP        -0.3857
     17 C3'         1.9404   -0.7419    0.5596 C.3       1 ACP         0.0978
     18 O3'         2.7418   -0.8086    1.7389 O.3       1 ACP        -0.5800
     19 C2'         0.7477    0.1630    0.7858 C.3       1 ACP         0.0885
     20 O2'         0.1373   -0.0577    2.0407 O.3       1 ACP        -0.5877
     21 C1'         1.3733    1.5427    0.6747 C.3       1 ACP         0.3822
     22 N9          0.4520    2.5240    0.1767 N.pl3     1 ACP        -0.4391
     23 C8          0.1798    2.8712   -1.2933 C.ar      1 ACP         0.1869
     24 N7         -0.7494    3.8400   -1.3610 N.2       1 ACP        -0.2730
     25 C5         -1.0173    4.0603   -0.0358 C.ar      1 ACP        -0.1385
     26 C6         -2.0105    5.0717    0.4241 C.ar      1 ACP         0.4818
     27 N6         -2.6723    5.7982   -0.4628 N.pl3     1 ACP        -0.8277
     28 N1         -2.1445    5.1522    1.7502 N.pl3     1 ACP        -0.6982
     29 C2         -1.3755    4.3143    2.6427 C.ar      1 ACP         0.6213
     30 N3         -0.5075    3.4292    2.2616 N.ar      1 ACP        -0.5099
     31 C4         -0.3667    3.3425    0.9070 C.ar      1 ACP         0.2813
     32 HOG3       -3.4390   -1.5819   -4.1188 H         1 ACP         0.4118
     33 H3B1       -1.1280    2.1826   -4.6846 H         1 ACP         0.0929
     34 H3B2       -2.0966    1.3248   -5.8781 H         1 ACP         0.0929
     35 HOA2        2.7534   -1.5160   -5.6340 H         1 ACP         0.4544
     36 H5'1        1.2148   -0.0787   -2.0445 H         1 ACP         0.0887
     37 H5'2        2.4640   -1.3460   -2.1537 H         1 ACP         0.0887
     38 H4'         3.8046   -0.1390   -0.4012 H         1 ACP         0.1198
     39 H3'         1.6786   -1.7628    0.2719 H         1 ACP         0.0796
     40 HO3'        2.2231   -1.2979    2.3952 H         1 ACP         0.4356
     41 H2'         0.0002   -0.0084   -0.0014 H         1 ACP         0.0714
     42 HO2'       -0.6132    0.5577    2.1063 H         1 ACP         0.4430
     43 H1'         1.7718    1.9211    1.6015 H         1 ACP         0.1194
     44 H8          0.6089    2.4651   -2.2147 H         1 ACP         0.2736
     45 HN61       -2.5055    5.6680   -1.4503 H         1 ACP         0.4770
     46 HN62       -3.3462    6.4841   -0.1542 H         1 ACP         0.4770
     47 H2         -1.5932    4.4937    3.7066 H         1 ACP         0.0919
     48 H48        -2.8098    5.8270    2.1160 H         1 ACP         0.4736
@<TRIPOS>BOND
     1    1    2 2
     2    1    3 1
     3    1    4 1
     4    1    8 1
     5    4   32 1
     6    5    6 2
     7    5    7 1
     8    5    8 1
     9    5   12 1
    10    8   33 1
    11    8   34 1
    12    9   10 2
    13    9   11 1
    14    9   12 1
    15    9   13 1
    16   11   35 1
    17   13   14 1
    18   14   15 1
    19   14   36 1
    20   14   37 1
    21   15   16 1
    22   15   17 1
    23   15   38 1
    24   16   21 1
    25   17   18 1
    26   17   19 1
    27   17   39 1
    28   18   40 1
    29   19   20 1
    30   19   21 1
    31   19   41 1
    32   20   42 1
    33   21   22 1
    34   21   43 1
    35   22   23 ar
    36   22   31 ar
    37   23   24 ar
    38   23   44 1
    39   24   25 ar
    40   25   26 ar
    41   25   31 ar
    42   26   27 1
    43   26   28 ar
    44   27   45 1
    45   27   46 1
    46   28   29 ar
    47   28   48 1
    48   29   30 ar
    49   29   47 1
    50   30   31 ar
@<TRIPOS>SUBSTRUCTURE
     1 ACP         1 GROUP 0 A     ****
@<TRIPOS>MOLECULE
[[5-(6-amino-1,8-dihydropurine-6,8-diylium-7-id-9-yl)-3,4-dihydroxy-tetrahydrofuran-2-yl]methoxy-hydroxy-phosphoryl]oxy-[[hydroxy(oxido)phosphoryl]methyl]phosphinate
   48    50     1     0     0
SMALL
USER_CHARGES

@<TRIPOS>ATOM
      1 PG          1.6921    1.4253   -6.5227 P.3       1 ACP         1.3752
      2 O1G         2.5690    2.1519   -7.5156 O.co2     1 ACP        -0.8816
      3 O2G         1.8930    1.5516   -5.0301 O.co2     1 ACP        -0.8816
      4 O3G         0.1252    1.7023   -6.8816 O.3       1 ACP        -0.7903
      5 PB          0.8219   -1.6632   -5.9899 P.3       1 ACP         1.5257
      6 O1B         1.1272   -2.9939   -6.6383 O.co2     1 ACP        -0.8730
      7 O2B        -0.5946   -1.1661   -5.8141 O.co2     1 ACP        -0.8730
      8 C3B         1.7459   -0.3737   -6.9360 C.3       1 ACP        -0.5822
      9 PA          1.5744   -2.4620   -3.2287 P.3       1 ACP         1.7803
     10 O1A         1.9413   -3.9047   -3.4206 O.2       1 ACP        -0.8736
     11 O2A         0.0769   -2.2234   -2.6641 O.3       1 ACP        -0.7984
     12 O3A         1.6176   -1.5665   -4.5730 O.3       1 ACP        -0.7763
     13 O5'         2.5233   -1.6621   -2.1894 O.3       1 ACP        -0.5927
     14 C5'         2.2816   -0.2918   -1.9206 C.3       1 ACP         0.1349
     15 C4'         2.7248    0.0226   -0.4980 C.3       1 ACP         0.1151
     16 O4'         2.4697    1.4219   -0.2462 O.3       1 ACP        -0.3857
     17 C3'         1.9404   -0.7419    0.5596 C.3       1 ACP         0.0978
     18 O3'         2.7418   -0.8086    1.7389 O.3       1 ACP        -0.5800
     19 C2'         0.7477    0.1630    0.7858 C.3       1 ACP         0.0885
     20 O2'         0.1373   -0.0577    2.0407 O.3       1 ACP        -0.5877
     21 C1'         1.3733    1.5427    0.6747 C.3       1 ACP         0.3822
     22 N9          0.4520    2.5240    0.1767 N.pl3     1 ACP        -0.4391
     23 C8          0.1798    2.8712   -1.2933 C.ar      1 ACP         0.1869
     24 N7         -0.7494    3.8400   -1.3610 N.2       1 ACP        -0.2730
     25 C5         -1.0173    4.0603   -0.0358 C.ar      1 ACP        -0.1385
     26 C6         -2.0105    5.0717    0.4241 C.ar      1 ACP         0.4818
     27 N6         -2.6723    5.7982   -0.4628 N.pl3     1 ACP        -0.8277
     28 N1         -2.1445    5.1522    1.7502 N.pl3     1 ACP        -0.6982
     29 C2         -1.3755    4.3143    2.6427 C.ar      1 ACP         0.6213
     30 N3         -0.5075    3.4292    2.2616 N.ar      1 ACP        -0.5099
     31 C4         -0.3667    3.3425    0.9070 C.ar      1 ACP         0.2813
     32 HOG3       -0.1996    2.6278   -6.8745 H         1 ACP         0.4118
     33 H3B1        2.8019   -0.6616   -6.9187 H         1 ACP         0.0929
     34 H3B2        1.4078   -0.4628   -7.9747 H         1 ACP         0.0929
     35 HOA2       -0.1681   -2.6049   -1.7943 H         1 ACP         0.4544
     36 H5'1        2.8428    0.3151   -2.6386 H         1 ACP         0.0887
     37 H5'2        1.2124   -0.0895   -2.0416 H         1 ACP         0.0887
     38 H4'         3.8046   -0.1390   -0.4012 H         1 ACP         0.1198
     39 H3'         1.6786   -1.7628    0.2719 H         1 ACP         0.0796
     40 HO3'        2.2231   -1.2979    2.3952 H         1 ACP         0.4356
     41 H2'         0.0002   -0.0084   -0.0014 H         1 ACP         0.0714
     42 HO2'       -0.6132    0.5577    2.1063 H         1 ACP         0.4430
     43 H1'         1.7718    1.9211    1.6015 H         1 ACP         0.1194
     44 H8          0.6089    2.4651   -2.2147 H         1 ACP         0.2736
     45 HN61       -2.5055    5.6680   -1.4503 H         1 ACP         0.4770
     46 HN62       -3.3462    6.4841   -0.1542 H         1 ACP         0.4770
     47 H2         -1.5932    4.4937    3.7066 H         1 ACP         0.0919
     48 H48        -2.8098    5.8270    2.1160 H         1 ACP         0.4736
@<TRIPOS>BOND
     1    1    2 2
     2    1    3 1
     3    1    4 1
     4    1    8 1
     5    4   32 1
     6    5    6 2
     7    5    7 1
     8    5    8 1
     9    5   12 1
    10    8   33 1
    11    8   34 1
    12    9   10 2
    13    9   11 1
    14    9   12 1
    15    9   13 1
    16   11   35 1
    17   13   14 1
    18   14   15 1
    19   14   36 1
    20   14   37 1
    21   15   16 1
    22   15   17 1
    23   15   38 1
    24   16   21 1
    25   17   18 1
    26   17   19 1
    27   17   39 1
    28   18   40 1
    29   19   20 1
    30   19   21 1
    31   19   41 1
    32   20   42 1
    33   21   22 1
    34   21   43 1
    35   22   23 ar
    36   22   31 ar
    37   23   24 ar
    38   23   44 1
    39   24   25 ar
    40   25   26 ar
    41   25   31 ar
    42   26   27 1
    43   26   28 ar
    44   27   45 1
    45   27   46 1
    46   28   29 ar
    47   28   48 1
    48   29   30 ar
    49   29   47 1
    50   30   31 ar
@<TRIPOS>SUBSTRUCTURE
     1 ACP         1 GROUP 0 A     ****
@<TRIPOS>MOLECULE
[[5-(6-amino-1,8-dihydropurine-6,8-diylium-7-id-9-yl)-3,4-dihydroxy-tetrahydrofuran-2-yl]methoxy-hydroxy-phosphoryl]oxy-[[hydroxy(oxido)phosphoryl]methyl]phosphinate
   48    50     1     0     0
SMALL
USER_CHARGES

@<TRIPOS>ATOM
      1 PG         -0.8685   -2.6729   -4.5497 P.3       1 ACP         1.3752
      2 O1G        -2.3787   -2.6700   -4.5054 O.co2     1 ACP        -0.8816
      3 O2G        -0.0282   -2.3879   -3.3262 O.co2     1 ACP        -0.8816
      4 O3G        -0.3510   -4.0520   -5.2504 O.3       1 ACP        -0.7903
      5 PB          1.4249   -1.1583   -6.2893 P.3       1 ACP         1.5257
      6 O1B         1.4307   -0.1422   -7.4083 O.co2     1 ACP        -0.8730
      7 O2B         2.1175   -2.4953   -6.4204 O.co2     1 ACP        -0.8730
      8 C3B        -0.3423   -1.4910   -5.8675 C.3       1 ACP        -0.5822
      9 PA          3.3382   -0.0303   -4.3156 P.3       1 ACP         1.7803
     10 O1A         4.1259    0.9215   -5.1679 O.2       1 ACP        -0.8736
     11 O2A         4.0564   -1.4597   -4.0726 O.3       1 ACP        -0.7984
     12 O3A         1.8897   -0.4321   -4.9085 O.3       1 ACP        -0.7763
     13 O5'         3.0189    0.5129   -2.8246 O.3       1 ACP        -0.5927
     14 C5'         2.2816   -0.2918   -1.9206 C.3       1 ACP         0.1349
     15 C4'         2.7248    0.0226   -0.4980 C.3       1 ACP         0.1151
     16 O4'         2.4697    1.4219   -0.2462 O.3       1 ACP        -0.3857
     17 C3'         1.9404   -0.7419    0.5596 C.3       1 ACP         0.0978
     18 O3'         2.7418   -0.8086    1.7389 O.3       1 ACP        -0.5800
     19 C2'         0.7477    0.1630    0.7858 C.3       1 ACP         0.0885
     20 O2'         0.1373   -0.0577    2.0407 O.3       1 ACP        -0.5877
     21 C1'         1.3733    1.5427    0.6747 C.3       1 ACP         0.3822
     22 N9          0.4520    2.5240    0.1767 N.pl3     1 ACP        -0.4391
     23 C8          0.1798    2.8712   -1.2933 C.ar      1 ACP         0.1869
     24 N7         -0.7494    3.8400   -1.3610 N.2       1 ACP        -0.2730
     25 C5         -1.0173    4.0603   -0.0358 C.ar      1 ACP        -0.1385
     26 C6         -2.0105    5.0717    0.4241 C.ar      1 ACP         0.4818
     27 N6         -2.6723    5.7982   -0.4628 N.pl3     1 ACP        -0.8277
     28 N1         -2.1445    5.1522    1.7502 N.pl3     1 ACP        -0.6982
     29 C2         -1.3755    4.3143    2.6427 C.ar      1 ACP         0.6213
     30 N3         -0.5075    3.4292    2.2616 N.ar      1 ACP        -0.5099
     31 C4         -0.3667    3.3425    0.9070 C.ar      1 ACP         0.2813
     32 HOG3       -0.5924   -4.9070   -4.8345 H         1 ACP         0.4118
     33 H3B1       -0.7964   -0.5274   -5.6152 H         1 ACP         0.0929
     34 H3B2       -0.8139   -1.8328   -6.7958 H         1 ACP         0.0929
     35 HOA2        4.2687   -2.0215   -4.8481 H         1 ACP         0.4544
     36 H5'1        1.2148   -0.0787   -2.0445 H         1 ACP         0.0887
     37 H5'2        2.4640   -1.3460   -2.1537 H         1 ACP         0.0887
     38 H4'         3.8046   -0.1390   -0.4012 H         1 ACP         0.1198
     39 H3'         1.6786   -1.7628    0.2719 H         1 ACP         0.0796
     40 HO3'        2.2231   -1.2979    2.3952 H         1 ACP         0.4356
     41 H2'         0.0002   -0.0084   -0.0014 H         1 ACP         0.0714
     42 HO2'       -0.6132    0.5577    2.1063 H         1 ACP         0.4430
     43 H1'         1.7718    1.9211    1.6015 H         1 ACP         0.1194
     44 H8          0.6089    2.4651   -2.2147 H         1 ACP         0.2736
     45 HN61       -2.5055    5.6680   -1.4503 H         1 ACP         0.4770
     46 HN62       -3.3462    6.4841   -0.1542 H         1 ACP         0.4770
     47 H2         -1.5932    4.4937    3.7066 H         1 ACP         0.0919
     48 H48        -2.8098    5.8270    2.1160 H         1 ACP         0.4736
@<TRIPOS>BOND
     1    1    2 2
     2    1    3 1
     3    1    4 1
     4    1    8 1
     5    4   32 1
     6    5    6 2
     7    5    7 1
     8    5    8 1
     9    5   12 1
    10    8   33 1
    11    8   34 1
    12    9   10 2
    13    9   11 1
    14    9   12 1
    15    9   13 1
    16   11   35 1
    17   13   14 1
    18   14   15 1
    19   14   36 1
    20   14   37 1
    21   15   16 1
    22   15   17 1
    23   15   38 1
    24   16   21 1
    25   17   18 1
    26   17   19 1
    27   17   39 1
    28   18   40 1
    29   19   20 1
    30   19   21 1
    31   19   41 1
    32   20   42 1
    33   21   22 1
    34   21   43 1
    35   22   23 ar
    36   22   31 ar
    37   23   24 ar
    38   23   44 1
    39   24   25 ar
    40   25   26 ar
    41   25   31 ar
    42   26   27 1
    43   26   28 ar
    44   27   45 1
    45   27   46 1
    46   28   29 ar
    47   28   48 1
    48   29   30 ar
    49   29   47 1
    50   30   31 ar
@<TRIPOS>SUBSTRUCTURE
     1 ACP         1 GROUP 0 A     ****
@<TRIPOS>MOLECULE
[[5-(6-amino-1,8-dihydropurine-6,8-diylium-7-id-9-yl)-3,4-dihydroxy-tetrahydrofuran-2-yl]methoxy-hydroxy-phosphoryl]oxy-[[hydroxy(oxido)phosphoryl]methyl]phosphinate
   48    50     1     0     0
SMALL
USER_CHARGES

@<TRIPOS>ATOM
      1 PG         -1.7407    1.5409   -4.1426 P.3       1 ACP         1.3752
      2 O1G        -2.6036    2.7668   -3.9547 O.co2     1 ACP        -0.8816
      3 O2G        -0.9731    0.9157   -3.0006 O.co2     1 ACP        -0.8816
      4 O3G        -2.6009    0.3871   -4.9103 O.3       1 ACP        -0.7903
      5 PB          0.7407    0.6985   -6.0697 P.3       1 ACP         1.5257
      6 O1B         1.5272    1.3756   -7.1685 O.co2     1 ACP        -0.8730
      7 O2B         0.0396   -0.6228   -6.2864 O.co2     1 ACP        -0.8730
      8 C3B        -0.5283    1.9075   -5.4865 C.3       1 ACP        -0.5822
      9 PA          3.0847   -0.0765   -4.4165 P.3       1 ACP         1.7803
     10 O1A         4.2250    0.4181   -5.2579 O.2       1 ACP        -0.8736
     11 O2A         2.7758   -1.6569   -4.5733 O.3       1 ACP        -0.7984
     12 O3A         1.6600    0.6190   -4.7286 O.3       1 ACP        -0.7763
     13 O5'         3.2872    0.1331   -2.8242 O.3       1 ACP        -0.5927
     14 C5'         2.2816   -0.2918   -1.9206 C.3       1 ACP         0.1349
     15 C4'         2.7248    0.0226   -0.4980 C.3       1 ACP         0.1151
     16 O4'         2.4697    1.4219   -0.2462 O.3       1 ACP        -0.3857
     17 C3'         1.9404   -0.7419    0.5596 C.3       1 ACP         0.0978
     18 O3'         2.7418   -0.8086    1.7389 O.3       1 ACP        -0.5800
     19 C2'         0.7477    0.1630    0.7858 C.3       1 ACP         0.0885
     20 O2'         0.1373   -0.0577    2.0407 O.3       1 ACP        -0.5877
     21 C1'         1.3733    1.5427    0.6747 C.3       1 ACP         0.3822
     22 N9          0.4520    2.5240    0.1767 N.pl3     1 ACP        -0.4391
     23 C8         -1.0660    2.5608    0.3999 C.ar      1 ACP         0.1869
     24 N7         -1.5852    3.6333   -0.2221 N.2       1 ACP        -0.2730
     25 C5         -0.4682    4.1996   -0.7771 C.ar      1 ACP        -0.1385
     26 C6         -0.5216    5.4476   -1.5899 C.ar      1 ACP         0.4818
     27 N6         -1.6813    6.0510   -1.7982 N.pl3     1 ACP        -0.8277
     28 N1          0.6621    5.8575   -2.0523 N.pl3     1 ACP        -0.6982
     29 C2          1.8795    5.1301   -1.7717 C.ar      1 ACP         0.6213
     30 N3          1.9458    4.0434   -1.0670 N.ar      1 ACP        -0.5099
     31 C4          0.7388    3.6199   -0.5917 C.ar      1 ACP         0.2813
     32 HOG3       -3.4209    0.0552   -4.4864 H         1 ACP         0.4118
     33 H3B1        0.0096    2.8095   -5.1776 H         1 ACP         0.0929
     34 H3B2       -1.1180    2.1746   -6.3708 H         1 ACP         0.0929
     35 HOA2        2.5332   -2.0071   -5.4568 H         1 ACP         0.4544
     36 H5'1        1.3493    0.2322   -2.1551 H         1 ACP         0.0887
     37 H5'2        2.1259   -1.3686   -2.0434 H         1 ACP         0.0887
     38 H4'         3.8046   -0.1390   -0.4012 H         1 ACP         0.1198
     39 H3'         1.6786   -1.7628    0.2719 H         1 ACP         0.0796
     40 HO3'        2.2231   -1.2979    2.3952 H         1 ACP         0.4356
     41 H2'         0.0002   -0.0084   -0.0014 H         1 ACP         0.0714
     42 HO2'       -0.1554   -0.9852    2.0577 H         1 ACP         0.4430
     43 H1'         1.7718    1.9211    1.6015 H         1 ACP         0.1194
     44 H8         -1.7235    1.8833    0.9537 H         1 ACP         0.2736
     45 HN61       -2.5296    5.6672   -1.4072 H         1 ACP         0.4770
     46 HN62       -1.7205    6.8969   -2.3483 H         1 ACP         0.4770
     47 H2          2.7750    5.5878   -2.2190 H         1 ACP         0.0919
     48 H48         0.6808    6.7046   -2.6128 H         1 ACP         0.4736
@<TRIPOS>BOND
     1    1    2 2
     2    1    3 1
     3    1    4 1
     4    1    8 1
     5    4   32 1
     6    5    6 2
     7    5    7 1
     8    5    8 1
     9    5   12 1
    10    8   33 1
    11    8   34 1
    12    9   10 2
    13    9   11 1
    14    9   12 1
    15    9   13 1
    16   11   35 1
    17   13   14 1
    18   14   15 1
    19   14   36 1
    20   14   37 1
    21   15   16 1
    22   15   17 1
    23   15   38 1
    24   16   21 1
    25   17   18 1
    26   17   19 1
    27   17   39 1
    28   18   40 1
    29   19   20 1
    30   19   21 1
    31   19   41 1
    32   20   42 1
    33   21   22 1
    34   21   43 1
    35   22   23 ar
    36   22   31 ar
    37   23   24 ar
    38   23   44 1
    39   24   25 ar
    40   25   26 ar
    41   25   31 ar
    42   26   27 1
    43   26   28 ar
    44   27   45 1
    45   27   46 1
    46   28   29 ar
    47   28   48 1
    48   29   30 ar
    49   29   47 1
    50   30   31 ar
@<TRIPOS>SUBSTRUCTURE
     1 ACP         1 GROUP 0 A     ****
@<TRIPOS>MOLECULE
[[5-(6-amino-1,8-dihydropurine-6,8-diylium-7-id-9-yl)-3,4-dihydroxy-tetrahydrofuran-2-yl]methoxy-hydroxy-phosphoryl]oxy-[[hydroxy(oxido)phosphoryl]methyl]phosphinate
   48    50     1     0     0
SMALL
USER_CHARGES

@<TRIPOS>ATOM
      1 PG          3.5553    0.2364   -7.8386 P.3       1 ACP         1.3752
      2 O1G         3.5935    1.6027   -8.4824 O.co2     1 ACP        -0.8816
      3 O2G         2.2711   -0.5466   -7.6906 O.co2     1 ACP        -0.8816
      4 O3G         4.6915   -0.7144   -8.5210 O.3       1 ACP        -0.7903
      5 PB          4.4798   -1.0358   -4.9912 P.3       1 ACP         1.5257
      6 O1B         5.1367   -0.5041   -3.7382 O.co2     1 ACP        -0.8730
      7 O2B         5.0633   -2.1919   -5.7706 O.co2     1 ACP        -0.8730
      8 C3B         4.3070    0.3854   -6.1584 C.3       1 ACP        -0.5822
      9 PA          2.1465   -2.2810   -3.6369 P.3       1 ACP         1.7803
     10 O1A         2.4544   -3.7423   -3.7867 O.2       1 ACP        -0.8736
     11 O2A         0.5859   -1.9037   -3.8366 O.3       1 ACP        -0.7984
     12 O3A         2.9051   -1.3168   -4.6885 O.3       1 ACP        -0.7763
     13 O5'         2.5233   -1.6621   -2.1894 O.3       1 ACP        -0.5927
     14 C5'         2.2816   -0.2918   -1.9206 C.3       1 ACP         0.1349
     15 C4'         2.7248    0.0226   -0.4980 C.3       1 ACP         0.1151
     16 O4'         2.4697    1.4219   -0.2462 O.3       1 ACP        -0.3857
     17 C3'         1.9404   -0.7419    0.5596 C.3       1 ACP         0.0978
     18 O3'         2.7418   -0.8086    1.7389 O.3       1 ACP        -0.5800
     19 C2'         0.7477    0.1630    0.7858 C.3       1 ACP         0.0885
     20 O2'         0.1373   -0.0577    2.0407 O.3       1 ACP        -0.5877
     21 C1'         1.3733    1.5427    0.6747 C.3       1 ACP         0.3822
     22 N9          0.4520    2.5240    0.1767 N.pl3     1 ACP        -0.4391
     23 C8          0.1798    2.8712   -1.2933 C.ar      1 ACP         0.1869
     24 N7         -0.7494    3.8400   -1.3610 N.2       1 ACP        -0.2730
     25 C5         -1.0173    4.0603   -0.0358 C.ar      1 ACP        -0.1385
     26 C6         -2.0105    5.0717    0.4241 C.ar      1 ACP         0.4818
     27 N6         -2.6723    5.7982   -0.4628 N.pl3     1 ACP        -0.8277
     28 N1         -2.1445    5.1522    1.7502 N.pl3     1 ACP        -0.6982
     29 C2         -1.3755    4.3143    2.6427 C.ar      1 ACP         0.6213
     30 N3         -0.5075    3.4292    2.2616 N.ar      1 ACP        -0.5099
     31 C4         -0.3667    3.3425    0.9070 C.ar      1 ACP         0.2813
     32 HOG3        4.6382   -0.8886   -9.4848 H         1 ACP         0.4118
     33 H3B1        3.7378    1.1601   -5.6346 H         1 ACP         0.0929
     34 H3B2        5.3195    0.7780   -6.3061 H         1 ACP         0.0929
     35 HOA2       -0.0794   -2.3059   -3.2384 H         1 ACP         0.4544
     36 H5'1        2.8428    0.3151   -2.6386 H         1 ACP         0.0887
     37 H5'2        1.2124   -0.0895   -2.0416 H         1 ACP         0.0887
     38 H4'         3.8046   -0.1390   -0.4012 H         1 ACP         0.1198
     39 H3'         1.6786   -1.7628    0.2719 H         1 ACP         0.0796
     40 HO3'        2.2231   -1.2979    2.3952 H         1 ACP         0.4356
     41 H2'         0.0002   -0.0084   -0.0014 H         1 ACP         0.0714
     42 HO2'       -0.6132    0.5577    2.1063 H         1 ACP         0.4430
     43 H1'         1.7718    1.9211    1.6015 H         1 ACP         0.1194
     44 H8          0.6089    2.4651   -2.2147 H         1 ACP         0.2736
     45 HN61       -2.5055    5.6680   -1.4503 H         1 ACP         0.4770
     46 HN62       -3.3462    6.4841   -0.1542 H         1 ACP         0.4770
     47 H2         -1.5932    4.4937    3.7066 H         1 ACP         0.0919
     48 H48        -2.8098    5.8270    2.1160 H         1 ACP         0.4736
@<TRIPOS>BOND
     1    1    2 2
     2    1    3 1
     3    1    4 1
     4    1    8 1
     5    4   32 1
     6    5    6 2
     7    5    7 1
     8    5    8 1
     9    5   12 1
    10    8   33 1
    11    8   34 1
    12    9   10 2
    13    9   11 1
    14    9   12 1
    15    9   13 1
    16   11   35 1
    17   13   14 1
    18   14   15 1
    19   14   36 1
    20   14   37 1
    21   15   16 1
    22   15   17 1
    23   15   38 1
    24   16   21 1
    25   17   18 1
    26   17   19 1
    27   17   39 1
    28   18   40 1
    29   19   20 1
    30   19   21 1
    31   19   41 1
    32   20   42 1
    33   21   22 1
    34   21   43 1
    35   22   23 ar
    36   22   31 ar
    37   23   24 ar
    38   23   44 1
    39   24   25 ar
    40   25   26 ar
    41   25   31 ar
    42   26   27 1
    43   26   28 ar
    44   27   45 1
    45   27   46 1
    46   28   29 ar
    47   28   48 1
    48   29   30 ar
    49   29   47 1
    50   30   31 ar
@<TRIPOS>SUBSTRUCTURE
     1 ACP         1 GROUP 0 A     ****
@<TRIPOS>MOLECULE
[[5-(6-amino-1,8-dihydropurine-6,8-diylium-7-id-9-yl)-3,4-dihydroxy-tetrahydrofuran-2-yl]methoxy-hydroxy-phosphoryl]oxy-[[hydroxy(oxido)phosphoryl]methyl]phosphinate
   48    50     1     0     0
SMALL
USER_CHARGES

@<TRIPOS>ATOM
      1 PG         -0.4984   -2.4151   -6.6755 P.3       1 ACP         1.3752
      2 O1G        -1.7754   -3.1886   -6.4441 O.co2     1 ACP        -0.8816
      3 O2G         0.8637   -3.0167   -6.4165 O.co2     1 ACP        -0.8816
      4 O3G        -0.5249   -1.7630   -8.1704 O.3       1 ACP        -0.7903
      5 PB          0.7334    0.4230   -5.6713 P.3       1 ACP         1.5257
      6 O1B         0.2650    1.5386   -4.7655 O.co2     1 ACP        -0.8730
      7 O2B         1.1472    0.6762   -7.1028 O.co2     1 ACP        -0.8730
      8 C3B        -0.6044   -0.8503   -5.7006 C.3       1 ACP        -0.5822
      9 PA          3.3382   -0.0303   -4.3156 P.3       1 ACP         1.7803
     10 O1A         4.1259    0.9215   -5.1679 O.2       1 ACP        -0.8736
     11 O2A         4.0564   -1.4597   -4.0726 O.3       1 ACP        -0.7984
     12 O3A         1.8897   -0.4321   -4.9085 O.3       1 ACP        -0.7763
     13 O5'         3.0189    0.5129   -2.8246 O.3       1 ACP        -0.5927
     14 C5'         2.2816   -0.2918   -1.9206 C.3       1 ACP         0.1349
     15 C4'         2.7248    0.0226   -0.4980 C.3       1 ACP         0.1151
     16 O4'         2.4697    1.4219   -0.2462 O.3       1 ACP        -0.3857
     17 C3'         1.9404   -0.7419    0.5596 C.3       1 ACP         0.0978
     18 O3'         2.7418   -0.8086    1.7389 O.3       1 ACP        -0.5800
     19 C2'         0.7477    0.1630    0.7858 C.3       1 ACP         0.0885
     20 O2'         0.1373   -0.0577    2.0407 O.3       1 ACP        -0.5877
     21 C1'         1.3733    1.5427    0.6747 C.3       1 ACP         0.3822
     22 N9          0.4520    2.5240    0.1767 N.pl3     1 ACP        -0.4391
     23 C8          0.1798    2.8712   -1.2933 C.ar      1 ACP         0.1869
     24 N7         -0.7494    3.8400   -1.3610 N.2       1 ACP        -0.2730
     25 C5         -1.0173    4.0603   -0.0358 C.ar      1 ACP        -0.1385
     26 C6         -2.0105    5.0717    0.4241 C.ar      1 ACP         0.4818
     27 N6         -2.6723    5.7982   -0.4628 N.pl3     1 ACP        -0.8277
     28 N1         -2.1445    5.1522    1.7502 N.pl3     1 ACP        -0.6982
     29 C2         -1.3755    4.3143    2.6427 C.ar      1 ACP         0.6213
     30 N3         -0.5075    3.4292    2.2616 N.ar      1 ACP        -0.5099
     31 C4         -0.3667    3.3425    0.9070 C.ar      1 ACP         0.2813
     32 HOG3       -0.5982   -2.3645   -8.9417 H         1 ACP         0.4118
     33 H3B1       -0.7847   -1.1467   -4.6622 H         1 ACP         0.0929
     34 H3B2       -1.5060   -0.3314   -6.0455 H         1 ACP         0.0929
     35 HOA2        4.9322   -1.4812   -3.6315 H         1 ACP         0.4544
     36 H5'1        1.2148   -0.0787   -2.0445 H         1 ACP         0.0887
     37 H5'2        2.4640   -1.3460   -2.1537 H         1 ACP         0.0887
     38 H4'         3.8046   -0.1390   -0.4012 H         1 ACP         0.1198
     39 H3'         1.6786   -1.7628    0.2719 H         1 ACP         0.0796
     40 HO3'        2.2231   -1.2979    2.3952 H         1 ACP         0.4356
     41 H2'         0.0002   -0.0084   -0.0014 H         1 ACP         0.0714
     42 HO2'       -0.6132    0.5577    2.1063 H         1 ACP         0.4430
     43 H1'         1.7718    1.9211    1.6015 H         1 ACP         0.1194
     44 H8          0.6089    2.4651   -2.2147 H         1 ACP         0.2736
     45 HN61       -2.5055    5.6680   -1.4503 H         1 ACP         0.4770
     46 HN62       -3.3462    6.4841   -0.1542 H         1 ACP         0.4770
     47 H2         -1.5932    4.4937    3.7066 H         1 ACP         0.0919
     48 H48        -2.8098    5.8270    2.1160 H         1 ACP         0.4736
@<TRIPOS>BOND
     1    1    2 2
     2    1    3 1
     3    1    4 1
     4    1    8 1
     5    4   32 1
     6    5    6 2
     7    5    7 1
     8    5    8 1
     9    5   12 1
    10    8   33 1
    11    8   34 1
    12    9   10 2
    13    9   11 1
    14    9   12 1
    15    9   13 1
    16   11   35 1
    17   13   14 1
    18   14   15 1
    19   14   36 1
    20   14   37 1
    21   15   16 1
    22   15   17 1
    23   15   38 1
    24   16   21 1
    25   17   18 1
    26   17   19 1
    27   17   39 1
    28   18   40 1
    29   19   20 1
    30   19   21 1
    31   19   41 1
    32   20   42 1
    33   21   22 1
    34   21   43 1
    35   22   23 ar
    36   22   31 ar
    37   23   24 ar
    38   23   44 1
    39   24   25 ar
    40   25   26 ar
    41   25   31 ar
    42   26   27 1
    43   26   28 ar
    44   27   45 1
    45   27   46 1
    46   28   29 ar
    47   28   48 1
    48   29   30 ar
    49   29   47 1
    50   30   31 ar
@<TRIPOS>SUBSTRUCTURE
     1 ACP         1 GROUP 0 A     ****
@<TRIPOS>MOLECULE
[[5-(6-amino-1,8-dihydropurine-6,8-diylium-7-id-9-yl)-3,4-dihydroxy-tetrahydrofuran-2-yl]methoxy-hydroxy-phosphoryl]oxy-[[hydroxy(oxido)phosphoryl]methyl]phosphinate
   48    50     1     0     0
SMALL
USER_CHARGES

@<TRIPOS>ATOM
      1 PG          2.6595   -3.4436   -7.4793 P.3       1 ACP         1.3752
      2 O1G         2.1514   -4.8275   -7.8100 O.co2     1 ACP        -0.8816
      3 O2G         4.0363   -3.2100   -6.9014 O.co2     1 ACP        -0.8816
      4 O3G         2.4415   -2.4660   -8.7666 O.3       1 ACP        -0.7903
      5 PB          1.6392   -0.9491   -5.6582 P.3       1 ACP         1.5257
      6 O1B         0.4425   -0.6810   -4.7747 O.co2     1 ACP        -0.8730
      7 O2B         1.9994   -0.0426   -6.8128 O.co2     1 ACP        -0.8730
      8 C3B         1.4411   -2.6555   -6.3371 C.3       1 ACP        -0.5822
      9 PA          3.9484   -0.1820   -3.9530 P.3       1 ACP         1.7803
     10 O1A         4.6731    0.7855   -4.8427 O.2       1 ACP        -0.8736
     11 O2A         4.9159   -1.1727   -3.1161 O.3       1 ACP        -0.7984
     12 O3A         2.9484   -1.1921   -4.7216 O.3       1 ACP        -0.7763
     13 O5'         3.0189    0.5129   -2.8246 O.3       1 ACP        -0.5927
     14 C5'         2.2816   -0.2918   -1.9206 C.3       1 ACP         0.1349
     15 C4'         2.7248    0.0226   -0.4980 C.3       1 ACP         0.1151
     16 O4'         2.4697    1.4219   -0.2462 O.3       1 ACP        -0.3857
     17 C3'         1.9404   -0.7419    0.5596 C.3       1 ACP         0.0978
     18 O3'         2.7418   -0.8086    1.7389 O.3       1 ACP        -0.5800
     19 C2'         0.7477    0.1630    0.7858 C.3       1 ACP         0.0885
     20 O2'         0.1373   -0.0577    2.0407 O.3       1 ACP        -0.5877
     21 C1'         1.3733    1.5427    0.6747 C.3       1 ACP         0.3822
     22 N9          0.4520    2.5240    0.1767 N.pl3     1 ACP        -0.4391
     23 C8          0.1798    2.8712   -1.2933 C.ar      1 ACP         0.1869
     24 N7         -0.7494    3.8400   -1.3610 N.2       1 ACP        -0.2730
     25 C5         -1.0173    4.0603   -0.0358 C.ar      1 ACP        -0.1385
     26 C6         -2.0105    5.0717    0.4241 C.ar      1 ACP         0.4818
     27 N6         -2.6723    5.7982   -0.4628 N.pl3     1 ACP        -0.8277
     28 N1         -2.1445    5.1522    1.7502 N.pl3     1 ACP        -0.6982
     29 C2         -1.3755    4.3143    2.6427 C.ar      1 ACP         0.6213
     30 N3         -0.5075    3.4292    2.2616 N.ar      1 ACP        -0.5099
     31 C4         -0.3667    3.3425    0.9070 C.ar      1 ACP         0.2813
     32 HOG3        2.8811   -2.7004   -9.6116 H         1 ACP         0.4118
     33 H3B1        1.3424   -3.3296   -5.4802 H         1 ACP         0.0929
     34 H3B2        0.4781   -2.6610   -6.8602 H         1 ACP         0.0929
     35 HOA2        5.5191   -1.7715   -3.6058 H         1 ACP         0.4544
     36 H5'1        1.2148   -0.0787   -2.0445 H         1 ACP         0.0887
     37 H5'2        2.4640   -1.3460   -2.1537 H         1 ACP         0.0887
     38 H4'         3.8046   -0.1390   -0.4012 H         1 ACP         0.1198
     39 H3'         1.6786   -1.7628    0.2719 H         1 ACP         0.0796
     40 HO3'        2.2231   -1.2979    2.3952 H         1 ACP         0.4356
     41 H2'         0.0002   -0.0084   -0.0014 H         1 ACP         0.0714
     42 HO2'       -0.1554   -0.9852    2.0577 H         1 ACP         0.4430
     43 H1'         1.7718    1.9211    1.6015 H         1 ACP         0.1194
     44 H8          0.6089    2.4651   -2.2147 H         1 ACP         0.2736
     45 HN61       -2.5055    5.6680   -1.4503 H         1 ACP         0.4770
     46 HN62       -3.3462    6.4841   -0.1542 H         1 ACP         0.4770
     47 H2         -1.5932    4.4937    3.7066 H         1 ACP         0.0919
     48 H48        -2.8098    5.8270    2.1160 H         1 ACP         0.4736
@<TRIPOS>BOND
     1    1    2 2
     2    1    3 1
     3    1    4 1
     4    1    8 1
     5    4   32 1
     6    5    6 2
     7    5    7 1
     8    5    8 1
     9    5   12 1
    10    8   33 1
    11    8   34 1
    12    9   10 2
    13    9   11 1
    14    9   12 1
    15    9   13 1
    16   11   35 1
    17   13   14 1
    18   14   15 1
    19   14   36 1
    20   14   37 1
    21   15   16 1
    22   15   17 1
    23   15   38 1
    24   16   21 1
    25   17   18 1
    26   17   19 1
    27   17   39 1
    28   18   40 1
    29   19   20 1
    30   19   21 1
    31   19   41 1
    32   20   42 1
    33   21   22 1
    34   21   43 1
    35   22   23 ar
    36   22   31 ar
    37   23   24 ar
    38   23   44 1
    39   24   25 ar
    40   25   26 ar
    41   25   31 ar
    42   26   27 1
    43   26   28 ar
    44   27   45 1
    45   27   46 1
    46   28   29 ar
    47   28   48 1
    48   29   30 ar
    49   29   47 1
    50   30   31 ar
@<TRIPOS>SUBSTRUCTURE
     1 ACP         1 GROUP 0 A     ****
@<TRIPOS>MOLECULE
[[5-(6-amino-1,8-dihydropurine-6,8-diylium-7-id-9-yl)-3,4-dihydroxy-tetrahydrofuran-2-yl]methoxy-hydroxy-phosphoryl]oxy-[[hydroxy(oxido)phosphoryl]methyl]phosphinate
   48    50     1     0     0
SMALL
USER_CHARGES

@<TRIPOS>ATOM
      1 PG         -1.5697    0.9612   -6.2151 P.3       1 ACP         1.3752
      2 O1G        -3.0285    1.0535   -5.8329 O.co2     1 ACP        -0.8816
      3 O2G        -0.8611   -0.3651   -6.3666 O.co2     1 ACP        -0.8816
      4 O3G        -1.2999    1.8717   -7.5413 O.3       1 ACP        -0.7903
      5 PB          1.2306    2.1525   -5.0665 P.3       1 ACP         1.5257
      6 O1B         1.6275    3.0428   -3.9113 O.co2     1 ACP        -0.8730
      7 O2B         1.6010    2.4829   -6.4941 O.co2     1 ACP        -0.8730
      8 C3B        -0.6059    1.9659   -5.0018 C.3       1 ACP        -0.5822
      9 PA          3.0847   -0.0765   -4.4165 P.3       1 ACP         1.7803
     10 O1A         4.2250    0.4181   -5.2579 O.2       1 ACP        -0.8736
     11 O2A         2.7758   -1.6569   -4.5733 O.3       1 ACP        -0.7984
     12 O3A         1.6600    0.6190   -4.7286 O.3       1 ACP        -0.7763
     13 O5'         3.2872    0.1331   -2.8242 O.3       1 ACP        -0.5927
     14 C5'         2.2816   -0.2918   -1.9206 C.3       1 ACP         0.1349
     15 C4'         2.7248    0.0226   -0.4980 C.3       1 ACP         0.1151
     16 O4'         2.4697    1.4219   -0.2462 O.3       1 ACP        -0.3857
     17 C3'         1.9404   -0.7419    0.5596 C.3       1 ACP         0.0978
     18 O3'         2.7418   -0.8086    1.7389 O.3       1 ACP        -0.5800
     19 C2'         0.7477    0.1630    0.7858 C.3       1 ACP         0.0885
     20 O2'         0.1373   -0.0577    2.0407 O.3       1 ACP        -0.5877
     21 C1'         1.3733    1.5427    0.6747 C.3       1 ACP         0.3822
     22 N9          0.4520    2.5240    0.1767 N.pl3     1 ACP        -0.4391
     23 C8         -0.3054    2.4845   -1.1576 C.ar      1 ACP         0.1869
     24 N7         -1.0755    3.5806   -1.2691 N.2       1 ACP        -0.2730
     25 C5         -0.8043    4.2306   -0.0942 C.ar      1 ACP        -0.1385
     26 C6         -1.4324    5.5335    0.2646 C.ar      1 ACP         0.4818
     27 N6         -2.2885    6.1055   -0.5675 N.pl3     1 ACP        -0.8277
     28 N1         -1.0537    6.0229    1.4479 N.pl3     1 ACP        -0.6982
     29 C2         -0.1096    5.3242    2.2908 C.ar      1 ACP         0.6213
     30 N3          0.4468    4.1904    1.9960 N.ar      1 ACP        -0.5099
     31 C4          0.0631    3.6855    0.7877 C.ar      1 ACP         0.2813
     32 HOG3       -1.7898    1.6570   -8.3636 H         1 ACP         0.4118
     33 H3B1       -0.8510    1.5697   -4.0112 H         1 ACP         0.0929
     34 H3B2       -1.0133    2.9822   -5.0489 H         1 ACP         0.0929
     35 HOA2        3.4794   -2.3021   -4.3479 H         1 ACP         0.4544
     36 H5'1        1.3493    0.2322   -2.1551 H         1 ACP         0.0887
     37 H5'2        2.1259   -1.3686   -2.0434 H         1 ACP         0.0887
     38 H4'         3.8046   -0.1390   -0.4012 H         1 ACP         0.1198
     39 H3'         1.6786   -1.7628    0.2719 H         1 ACP         0.0796
     40 HO3'        2.2231   -1.2979    2.3952 H         1 ACP         0.4356
     41 H2'         0.0002   -0.0084   -0.0014 H         1 ACP         0.0714
     42 HO2'       -0.6132    0.5577    2.1063 H         1 ACP         0.4430
     43 H1'         1.7718    1.9211    1.6015 H         1 ACP         0.1194
     44 H8         -0.2991    1.7413   -1.9611 H         1 ACP         0.2736
     45 HN61       -2.5167    5.6603   -1.4447 H         1 ACP         0.4770
     46 HN62       -2.7159    6.9882   -0.3270 H         1 ACP         0.4770
     47 H2          0.1059    5.8491    3.2340 H         1 ACP         0.0919
     48 H48        -1.4532    6.9099    1.7401 H         1 ACP         0.4736
@<TRIPOS>BOND
     1    1    2 2
     2    1    3 1
     3    1    4 1
     4    1    8 1
     5    4   32 1
     6    5    6 2
     7    5    7 1
     8    5    8 1
     9    5   12 1
    10    8   33 1
    11    8   34 1
    12    9   10 2
    13    9   11 1
    14    9   12 1
    15    9   13 1
    16   11   35 1
    17   13   14 1
    18   14   15 1
    19   14   36 1
    20   14   37 1
    21   15   16 1
    22   15   17 1
    23   15   38 1
    24   16   21 1
    25   17   18 1
    26   17   19 1
    27   17   39 1
    28   18   40 1
    29   19   20 1
    30   19   21 1
    31   19   41 1
    32   20   42 1
    33   21   22 1
    34   21   43 1
    35   22   23 ar
    36   22   31 ar
    37   23   24 ar
    38   23   44 1
    39   24   25 ar
    40   25   26 ar
    41   25   31 ar
    42   26   27 1
    43   26   28 ar
    44   27   45 1
    45   27   46 1
    46   28   29 ar
    47   28   48 1
    48   29   30 ar
    49   29   47 1
    50   30   31 ar
@<TRIPOS>SUBSTRUCTURE
     1 ACP         1 GROUP 0 A     ****
@<TRIPOS>MOLECULE
[[5-(6-amino-1,8-dihydropurine-6,8-diylium-7-id-9-yl)-3,4-dihydroxy-tetrahydrofuran-2-yl]methoxy-hydroxy-phosphoryl]oxy-[[hydroxy(oxido)phosphoryl]methyl]phosphinate
   48    50     1     0     0
SMALL
USER_CHARGES

@<TRIPOS>ATOM
      1 PG          6.0469    1.7725   -4.3776 P.3       1 ACP         1.3752
      2 O1G         7.4051    2.3146   -3.9978 O.co2     1 ACP        -0.8816
      3 O2G         4.8866    1.7615   -3.4091 O.co2     1 ACP        -0.8816
      4 O3G         5.5697    2.4471   -5.7839 O.3       1 ACP        -0.7903
      5 PB          4.8916   -1.0307   -5.5555 P.3       1 ACP         1.5257
      6 O1B         5.4933   -2.3572   -5.9591 O.co2     1 ACP        -0.8730
      7 O2B         4.0534   -0.2102   -6.5087 O.co2     1 ACP        -0.8730
      8 C3B         6.2802    0.0418   -4.9781 C.3       1 ACP        -0.5822
      9 PA          2.8566   -2.1437   -3.6985 P.3       1 ACP         1.7803
     10 O1A         3.0912   -3.6192   -3.8419 O.2       1 ACP        -0.8736
     11 O2A         1.6238   -1.5751   -4.5786 O.3       1 ACP        -0.7984
     12 O3A         4.0996   -1.2128   -4.1449 O.3       1 ACP        -0.7763
     13 O5'         2.5233   -1.6621   -2.1894 O.3       1 ACP        -0.5927
     14 C5'         2.2816   -0.2918   -1.9206 C.3       1 ACP         0.1349
     15 C4'         2.7248    0.0226   -0.4980 C.3       1 ACP         0.1151
     16 O4'         2.4697    1.4219   -0.2462 O.3       1 ACP        -0.3857
     17 C3'         1.9404   -0.7419    0.5596 C.3       1 ACP         0.0978
     18 O3'         2.7418   -0.8086    1.7389 O.3       1 ACP        -0.5800
     19 C2'         0.7477    0.1630    0.7858 C.3       1 ACP         0.0885
     20 O2'         0.1373   -0.0577    2.0407 O.3       1 ACP        -0.5877
     21 C1'         1.3733    1.5427    0.6747 C.3       1 ACP         0.3822
     22 N9          0.4520    2.5240    0.1767 N.pl3     1 ACP        -0.4391
     23 C8          0.1798    2.8712   -1.2933 C.ar      1 ACP         0.1869
     24 N7         -0.7494    3.8400   -1.3610 N.2       1 ACP        -0.2730
     25 C5         -1.0173    4.0603   -0.0358 C.ar      1 ACP        -0.1385
     26 C6         -2.0105    5.0717    0.4241 C.ar      1 ACP         0.4818
     27 N6         -2.6723    5.7982   -0.4628 N.pl3     1 ACP        -0.8277
     28 N1         -2.1445    5.1522    1.7502 N.pl3     1 ACP        -0.6982
     29 C2         -1.3755    4.3143    2.6427 C.ar      1 ACP         0.6213
     30 N3         -0.5075    3.4292    2.2616 N.ar      1 ACP        -0.5099
     31 C4         -0.3667    3.3425    0.9070 C.ar      1 ACP         0.2813
     32 HOG3        5.4722    3.4223   -5.8254 H         1 ACP         0.4118
     33 H3B1        6.7852   -0.4982   -4.1708 H         1 ACP         0.0929
     34 H3B2        6.9855    0.0972   -5.8151 H         1 ACP         0.0929
     35 HOA2        1.6521   -1.6747   -5.5540 H         1 ACP         0.4544
     36 H5'1        2.8428    0.3151   -2.6386 H         1 ACP         0.0887
     37 H5'2        1.2124   -0.0895   -2.0416 H         1 ACP         0.0887
     38 H4'         3.8046   -0.1390   -0.4012 H         1 ACP         0.1198
     39 H3'         1.6786   -1.7628    0.2719 H         1 ACP         0.0796
     40 HO3'        2.2231   -1.2979    2.3952 H         1 ACP         0.4356
     41 H2'         0.0002   -0.0084   -0.0014 H         1 ACP         0.0714
     42 HO2'       -0.6132    0.5577    2.1063 H         1 ACP         0.4430
     43 H1'         1.7718    1.9211    1.6015 H         1 ACP         0.1194
     44 H8          0.6089    2.4651   -2.2147 H         1 ACP         0.2736
     45 HN61       -2.5055    5.6680   -1.4503 H         1 ACP         0.4770
     46 HN62       -3.3462    6.4841   -0.1542 H         1 ACP         0.4770
     47 H2         -1.5932    4.4937    3.7066 H         1 ACP         0.0919
     48 H48        -2.8098    5.8270    2.1160 H         1 ACP         0.4736
@<TRIPOS>BOND
     1    1    2 2
     2    1    3 1
     3    1    4 1
     4    1    8 1
     5    4   32 1
     6    5    6 2
     7    5    7 1
     8    5    8 1
     9    5   12 1
    10    8   33 1
    11    8   34 1
    12    9   10 2
    13    9   11 1
    14    9   12 1
    15    9   13 1
    16   11   35 1
    17   13   14 1
    18   14   15 1
    19   14   36 1
    20   14   37 1
    21   15   16 1
    22   15   17 1
    23   15   38 1
    24   16   21 1
    25   17   18 1
    26   17   19 1
    27   17   39 1
    28   18   40 1
    29   19   20 1
    30   19   21 1
    31   19   41 1
    32   20   42 1
    33   21   22 1
    34   21   43 1
    35   22   23 ar
    36   22   31 ar
    37   23   24 ar
    38   23   44 1
    39   24   25 ar
    40   25   26 ar
    41   25   31 ar
    42   26   27 1
    43   26   28 ar
    44   27   45 1
    45   27   46 1
    46   28   29 ar
    47   28   48 1
    48   29   30 ar
    49   29   47 1
    50   30   31 ar
@<TRIPOS>SUBSTRUCTURE
     1 ACP         1 GROUP 0 A     ****
@<TRIPOS>MOLECULE
[[5-(6-amino-1,8-dihydropurine-6,8-diylium-7-id-9-yl)-3,4-dihydroxy-tetrahydrofuran-2-yl]methoxy-hydroxy-phosphoryl]oxy-[[hydroxy(oxido)phosphoryl]methyl]phosphinate
   48    50     1     0     0
SMALL
USER_CHARGES

@<TRIPOS>ATOM
      1 PG         -0.5943    0.8257   -5.9271 P.3       1 ACP         1.3752
      2 O1G        -0.6857    2.1894   -6.5710 O.co2     1 ACP        -0.8816
      3 O2G        -0.5078    0.6487   -4.4286 O.co2     1 ACP        -0.8816
      4 O3G        -1.7773   -0.1304   -6.5160 O.3       1 ACP        -0.7903
      5 PB          1.3600   -1.7611   -6.1915 P.3       1 ACP         1.5257
      6 O1B         2.5747   -2.1113   -7.0200 O.co2     1 ACP        -0.8730
      7 O2B         0.1162   -2.6197   -6.1941 O.co2     1 ACP        -0.8730
      8 C3B         0.8513   -0.0511   -6.6701 C.3       1 ACP        -0.5822
      9 PA          2.1851   -2.4502   -3.4215 P.3       1 ACP         1.7803
     10 O1A         2.9708   -3.6742   -3.7922 O.2       1 ACP        -0.8736
     11 O2A         0.7441   -2.7589   -2.7536 O.3       1 ACP        -0.7984
     12 O3A         1.8261   -1.4743   -4.6583 O.3       1 ACP        -0.7763
     13 O5'         2.9194   -1.4813   -2.3528 O.3       1 ACP        -0.5927
     14 C5'         2.2816   -0.2918   -1.9206 C.3       1 ACP         0.1349
     15 C4'         2.7248    0.0226   -0.4980 C.3       1 ACP         0.1151
     16 O4'         2.4697    1.4219   -0.2462 O.3       1 ACP        -0.3857
     17 C3'         1.9404   -0.7419    0.5596 C.3       1 ACP         0.0978
     18 O3'         2.7418   -0.8086    1.7389 O.3       1 ACP        -0.5800
     19 C2'         0.7477    0.1630    0.7858 C.3       1 ACP         0.0885
     20 O2'         0.1373   -0.0577    2.0407 O.3       1 ACP        -0.5877
     21 C1'         1.3733    1.5427    0.6747 C.3       1 ACP         0.3822
     22 N9          0.4520    2.5240    0.1767 N.pl3     1 ACP        -0.4391
     23 C8          0.1798    2.8712   -1.2933 C.ar      1 ACP         0.1869
     24 N7         -0.7494    3.8400   -1.3610 N.2       1 ACP        -0.2730
     25 C5         -1.0173    4.0603   -0.0358 C.ar      1 ACP        -0.1385
     26 C6         -2.0105    5.0717    0.4241 C.ar      1 ACP         0.4818
     27 N6         -2.6723    5.7982   -0.4628 N.pl3     1 ACP        -0.8277
     28 N1         -2.1445    5.1522    1.7502 N.pl3     1 ACP        -0.6982
     29 C2         -1.3755    4.3143    2.6427 C.ar      1 ACP         0.6213
     30 N3         -0.5075    3.4292    2.2616 N.ar      1 ACP        -0.5099
     31 C4         -0.3667    3.3425    0.9070 C.ar      1 ACP         0.2813
     32 HOG3       -2.7096    0.1465   -6.3880 H         1 ACP         0.4118
     33 H3B1        1.7193    0.5962   -6.5091 H         1 ACP         0.0929
     34 H3B2        0.6722   -0.0821   -7.7508 H         1 ACP         0.0929
     35 HOA2        0.7087   -3.2740   -1.9196 H         1 ACP         0.4544
     36 H5'1        2.5576    0.5245   -2.5961 H         1 ACP         0.0887
     37 H5'2        1.1970   -0.4360   -1.9602 H         1 ACP         0.0887
     38 H4'         3.8046   -0.1390   -0.4012 H         1 ACP         0.1198
     39 H3'         1.6786   -1.7628    0.2719 H         1 ACP         0.0796
     40 HO3'        2.2231   -1.2979    2.3952 H         1 ACP         0.4356
     41 H2'         0.0002   -0.0084   -0.0014 H         1 ACP         0.0714
     42 HO2'       -0.6132    0.5577    2.1063 H         1 ACP         0.4430
     43 H1'         1.7718    1.9211    1.6015 H         1 ACP         0.1194
     44 H8          0.6089    2.4651   -2.2147 H         1 ACP         0.2736
     45 HN61       -2.5055    5.6680   -1.4503 H         1 ACP         0.4770
     46 HN62       -3.3462    6.4841   -0.1542 H         1 ACP         0.4770
     47 H2         -1.5932    4.4937    3.7066 H         1 ACP         0.0919
     48 H48        -2.8098    5.8270    2.1160 H         1 ACP         0.4736
@<TRIPOS>BOND
     1    1    2 2
     2    1    3 1
     3    1    4 1
     4    1    8 1
     5    4   32 1
     6    5    6 2
     7    5    7 1
     8    5    8 1
     9    5   12 1
    10    8   33 1
    11    8   34 1
    12    9   10 2
    13    9   11 1
    14    9   12 1
    15    9   13 1
    16   11   35 1
    17   13   14 1
    18   14   15 1
    19   14   36 1
    20   14   37 1
    21   15   16 1
    22   15   17 1
    23   15   38 1
    24   16   21 1
    25   17   18 1
    26   17   19 1
    27   17   39 1
    28   18   40 1
    29   19   20 1
    30   19   21 1
    31   19   41 1
    32   20   42 1
    33   21   22 1
    34   21   43 1
    35   22   23 ar
    36   22   31 ar
    37   23   24 ar
    38   23   44 1
    39   24   25 ar
    40   25   26 ar
    41   25   31 ar
    42   26   27 1
    43   26   28 ar
    44   27   45 1
    45   27   46 1
    46   28   29 ar
    47   28   48 1
    48   29   30 ar
    49   29   47 1
    50   30   31 ar
@<TRIPOS>SUBSTRUCTURE
     1 ACP         1 GROUP 0 A     ****
@<TRIPOS>MOLECULE
[[5-(6-amino-1,8-dihydropurine-6,8-diylium-7-id-9-yl)-3,4-dihydroxy-tetrahydrofuran-2-yl]methoxy-hydroxy-phosphoryl]oxy-[[hydroxy(oxido)phosphoryl]methyl]phosphinate
   48    50     1     0     0
SMALL
USER_CHARGES

@<TRIPOS>ATOM
      1 PG         -2.0439   -0.7653   -3.8101 P.3       1 ACP         1.3752
      2 O1G        -3.3949   -0.3545   -3.2729 O.co2     1 ACP        -0.8816
      3 O2G        -0.8905   -1.1185   -2.8995 O.co2     1 ACP        -0.8816
      4 O3G        -2.2392   -1.9475   -4.9169 O.3       1 ACP        -0.7903
      5 PB          0.1518    0.5081   -5.8442 P.3       1 ACP         1.5257
      6 O1B         0.2533    1.7757   -6.6611 O.co2     1 ACP        -0.8730
      7 O2B         0.2660   -0.8606   -6.4751 O.co2     1 ACP        -0.8730
      8 C3B        -1.4610    0.5690   -4.9459 C.3       1 ACP        -0.5822
      9 PA          2.7552    0.3900   -4.4169 P.3       1 ACP         1.7803
     10 O1A         3.6031    1.2984   -5.2588 O.2       1 ACP        -0.8736
     11 O2A         2.9489   -1.1853   -4.7315 O.3       1 ACP        -0.7984
     12 O3A         1.1622    0.6123   -4.5720 O.3       1 ACP        -0.7763
     13 O5'         3.0189    0.5129   -2.8246 O.3       1 ACP        -0.5927
     14 C5'         2.2816   -0.2918   -1.9206 C.3       1 ACP         0.1349
     15 C4'         2.7248    0.0226   -0.4980 C.3       1 ACP         0.1151
     16 O4'         2.4697    1.4219   -0.2462 O.3       1 ACP        -0.3857
     17 C3'         1.9404   -0.7419    0.5596 C.3       1 ACP         0.0978
     18 O3'         2.7418   -0.8086    1.7389 O.3       1 ACP        -0.5800
     19 C2'         0.7477    0.1630    0.7858 C.3       1 ACP         0.0885
     20 O2'         0.1373   -0.0577    2.0407 O.3       1 ACP        -0.5877
     21 C1'         1.3733    1.5427    0.6747 C.3       1 ACP         0.3822
     22 N9          0.4520    2.5240    0.1767 N.pl3     1 ACP        -0.4391
     23 C8         -0.7463    2.2774   -0.7501 C.ar      1 ACP         0.1869
     24 N7         -1.3714    3.4419   -0.9948 N.2       1 ACP        -0.2730
     25 C5         -0.6104    4.3223   -0.2722 C.ar      1 ACP        -0.1385
     26 C6         -0.9062    5.7820   -0.2194 C.ar      1 ACP         0.4818
     27 N6         -1.9385    6.2713   -0.8881 N.pl3     1 ACP        -0.8277
     28 N1         -0.0613    6.4906    0.5336 N.pl3     1 ACP        -0.6982
     29 C2          1.0416    5.8662    1.2291 C.ar      1 ACP         0.6213
     30 N3          1.3146    4.5989    1.1954 N.ar      1 ACP        -0.5099
     31 C4          0.4541    3.8697    0.4273 C.ar      1 ACP         0.2813
     32 HOG3       -2.6640   -2.7858   -4.6357 H         1 ACP         0.4118
     33 H3B1       -1.4648    1.4942   -4.3607 H         1 ACP         0.0929
     34 H3B2       -2.2313    0.6765   -5.7180 H         1 ACP         0.0929
     35 HOA2        3.8371   -1.5857   -4.6177 H         1 ACP         0.4544
     36 H5'1        1.2148   -0.0787   -2.0445 H         1 ACP         0.0887
     37 H5'2        2.4640   -1.3460   -2.1537 H         1 ACP         0.0887
     38 H4'         3.8046   -0.1390   -0.4012 H         1 ACP         0.1198
     39 H3'         1.6786   -1.7628    0.2719 H         1 ACP         0.0796
     40 HO3'        2.2231   -1.2979    2.3952 H         1 ACP         0.4356
     41 H2'         0.0002   -0.0084   -0.0014 H         1 ACP         0.0714
     42 HO2'       -0.1554   -0.9852    2.0577 H         1 ACP         0.4430
     43 H1'         1.7718    1.9211    1.6015 H         1 ACP         0.1194
     44 H8         -1.1244    1.3534   -1.1987 H         1 ACP         0.2736
     45 HN61       -2.5259    5.6573   -1.4336 H         1 ACP         0.4770
     46 HN62       -2.1416    7.2600   -0.8539 H         1 ACP         0.4770
     47 H2          1.6509    6.5764    1.8088 H         1 ACP         0.0919
     48 H48        -0.2190    7.4917    0.6033 H         1 ACP         0.4736
@<TRIPOS>BOND
     1    1    2 2
     2    1    3 1
     3    1    4 1
     4    1    8 1
     5    4   32 1
     6    5    6 2
     7    5    7 1
     8    5    8 1
     9    5   12 1
    10    8   33 1
    11    8   34 1
    12    9   10 2
    13    9   11 1
    14    9   12 1
    15    9   13 1
    16   11   35 1
    17   13   14 1
    18   14   15 1
    19   14   36 1
    20   14   37 1
    21   15   16 1
    22   15   17 1
    23   15   38 1
    24   16   21 1
    25   17   18 1
    26   17   19 1
    27   17   39 1
    28   18   40 1
    29   19   20 1
    30   19   21 1
    31   19   41 1
    32   20   42 1
    33   21   22 1
    34   21   43 1
    35   22   23 ar
    36   22   31 ar
    37   23   24 ar
    38   23   44 1
    39   24   25 ar
    40   25   26 ar
    41   25   31 ar
    42   26   27 1
    43   26   28 ar
    44   27   45 1
    45   27   46 1
    46   28   29 ar
    47   28   48 1
    48   29   30 ar
    49   29   47 1
    50   30   31 ar
@<TRIPOS>SUBSTRUCTURE
     1 ACP         1 GROUP 0 A     ****
@<TRIPOS>MOLECULE
[[5-(6-amino-1,8-dihydropurine-6,8-diylium-7-id-9-yl)-3,4-dihydroxy-tetrahydrofuran-2-yl]methoxy-hydroxy-phosphoryl]oxy-[[hydroxy(oxido)phosphoryl]methyl]phosphinate
   48    50     1     0     0
SMALL
USER_CHARGES

@<TRIPOS>ATOM
      1 PG         -0.6106   -2.6660   -5.1145 P.3       1 ACP         1.3752
      2 O1G        -1.7281   -2.5068   -6.1188 O.co2     1 ACP        -0.8816
      3 O2G        -0.3467   -1.6400   -4.0366 O.co2     1 ACP        -0.8816
      4 O3G        -0.6982   -4.1481   -4.4391 O.3       1 ACP        -0.7903
      5 PB          2.6062   -3.1301   -5.2466 P.3       1 ACP         1.5257
      6 O1B         3.6269   -3.2794   -6.3513 O.co2     1 ACP        -0.8730
      7 O2B         2.4343   -4.1772   -4.1703 O.co2     1 ACP        -0.8730
      8 C3B         0.9621   -2.8946   -6.0551 C.3       1 ACP        -0.5822
      9 PA          4.0021   -0.9408   -3.8020 P.3       1 ACP         1.7803
     10 O1A         5.0476   -0.3570   -4.7069 O.2       1 ACP        -0.8736
     11 O2A         4.5506   -2.0869   -2.8003 O.3       1 ACP        -0.7984
     12 O3A         2.7726   -1.6621   -4.5630 O.3       1 ACP        -0.7763
     13 O5'         3.2872    0.1331   -2.8242 O.3       1 ACP        -0.5927
     14 C5'         2.2816   -0.2918   -1.9206 C.3       1 ACP         0.1349
     15 C4'         2.7248    0.0226   -0.4980 C.3       1 ACP         0.1151
     16 O4'         2.4697    1.4219   -0.2462 O.3       1 ACP        -0.3857
     17 C3'         1.9404   -0.7419    0.5596 C.3       1 ACP         0.0978
     18 O3'         2.7418   -0.8086    1.7389 O.3       1 ACP        -0.5800
     19 C2'         0.7477    0.1630    0.7858 C.3       1 ACP         0.0885
     20 O2'         0.1373   -0.0577    2.0407 O.3       1 ACP        -0.5877
     21 C1'         1.3733    1.5427    0.6747 C.3       1 ACP         0.3822
     22 N9          0.4520    2.5240    0.1767 N.pl3     1 ACP        -0.4391
     23 C8          0.1798    2.8712   -1.2933 C.ar      1 ACP         0.1869
     24 N7         -0.7494    3.8400   -1.3610 N.2       1 ACP        -0.2730
     25 C5         -1.0173    4.0603   -0.0358 C.ar      1 ACP        -0.1385
     26 C6         -2.0105    5.0717    0.4241 C.ar      1 ACP         0.4818
     27 N6         -2.6723    5.7982   -0.4628 N.pl3     1 ACP        -0.8277
     28 N1         -2.1445    5.1522    1.7502 N.pl3     1 ACP        -0.6982
     29 C2         -1.3755    4.3143    2.6427 C.ar      1 ACP         0.6213
     30 N3         -0.5075    3.4292    2.2616 N.ar      1 ACP        -0.5099
     31 C4         -0.3667    3.3425    0.9070 C.ar      1 ACP         0.2813
     32 HOG3       -1.5128   -4.3917   -3.9500 H         1 ACP         0.4118
     33 H3B1        1.0538   -2.0269   -6.7162 H         1 ACP         0.0929
     34 H3B2        0.8144   -3.7706   -6.6968 H         1 ACP         0.0929
     35 HOA2        4.9536   -2.8961   -3.1811 H         1 ACP         0.4544
     36 H5'1        1.3493    0.2322   -2.1551 H         1 ACP         0.0887
     37 H5'2        2.1259   -1.3686   -2.0434 H         1 ACP         0.0887
     38 H4'         3.8046   -0.1390   -0.4012 H         1 ACP         0.1198
     39 H3'         1.6786   -1.7628    0.2719 H         1 ACP         0.0796
     40 HO3'        3.5553   -1.2733    1.4913 H         1 ACP         0.4356
     41 H2'         0.0002   -0.0084   -0.0014 H         1 ACP         0.0714
     42 HO2'       -0.6132    0.5577    2.1063 H         1 ACP         0.4430
     43 H1'         1.7718    1.9211    1.6015 H         1 ACP         0.1194
     44 H8          0.6089    2.4651   -2.2147 H         1 ACP         0.2736
     45 HN61       -2.5055    5.6680   -1.4503 H         1 ACP         0.4770
     46 HN62       -3.3462    6.4841   -0.1542 H         1 ACP         0.4770
     47 H2         -1.5932    4.4937    3.7066 H         1 ACP         0.0919
     48 H48        -2.8098    5.8270    2.1160 H         1 ACP         0.4736
@<TRIPOS>BOND
     1    1    2 2
     2    1    3 1
     3    1    4 1
     4    1    8 1
     5    4   32 1
     6    5    6 2
     7    5    7 1
     8    5    8 1
     9    5   12 1
    10    8   33 1
    11    8   34 1
    12    9   10 2
    13    9   11 1
    14    9   12 1
    15    9   13 1
    16   11   35 1
    17   13   14 1
    18   14   15 1
    19   14   36 1
    20   14   37 1
    21   15   16 1
    22   15   17 1
    23   15   38 1
    24   16   21 1
    25   17   18 1
    26   17   19 1
    27   17   39 1
    28   18   40 1
    29   19   20 1
    30   19   21 1
    31   19   41 1
    32   20   42 1
    33   21   22 1
    34   21   43 1
    35   22   23 ar
    36   22   31 ar
    37   23   24 ar
    38   23   44 1
    39   24   25 ar
    40   25   26 ar
    41   25   31 ar
    42   26   27 1
    43   26   28 ar
    44   27   45 1
    45   27   46 1
    46   28   29 ar
    47   28   48 1
    48   29   30 ar
    49   29   47 1
    50   30   31 ar
@<TRIPOS>SUBSTRUCTURE
     1 ACP         1 GROUP 0 A     ****
@<TRIPOS>MOLECULE
[[5-(6-amino-1,8-dihydropurine-6,8-diylium-7-id-9-yl)-3,4-dihydroxy-tetrahydrofuran-2-yl]methoxy-hydroxy-phosphoryl]oxy-[[hydroxy(oxido)phosphoryl]methyl]phosphinate
   48    50     1     0     0
SMALL
USER_CHARGES

@<TRIPOS>ATOM
      1 PG         -0.1652   -0.1070   -7.2895 P.3       1 ACP         1.3752
      2 O1G        -0.8098    1.1921   -7.7132 O.co2     1 ACP        -0.8816
      3 O2G        -0.8323   -1.0568   -6.3214 O.co2     1 ACP        -0.8816
      4 O3G         0.3097   -0.9319   -8.6140 O.3       1 ACP        -0.7903
      5 PB          2.6707   -0.9891   -5.9627 P.3       1 ACP         1.5257
      6 O1B         3.9152   -0.2644   -5.5041 O.co2     1 ACP        -0.8730
      7 O2B         2.7251   -2.1062   -6.9793 O.co2     1 ACP        -0.8730
      8 C3B         1.5054    0.2898   -6.6098 C.3       1 ACP        -0.5822
      9 PA          2.1851   -2.4502   -3.4215 P.3       1 ACP         1.7803
     10 O1A         2.9708   -3.6742   -3.7922 O.2       1 ACP        -0.8736
     11 O2A         0.7441   -2.7589   -2.7536 O.3       1 ACP        -0.7984
     12 O3A         1.8261   -1.4743   -4.6583 O.3       1 ACP        -0.7763
     13 O5'         2.9194   -1.4813   -2.3528 O.3       1 ACP        -0.5927
     14 C5'         2.2816   -0.2918   -1.9206 C.3       1 ACP         0.1349
     15 C4'         2.7248    0.0226   -0.4980 C.3       1 ACP         0.1151
     16 O4'         2.4697    1.4219   -0.2462 O.3       1 ACP        -0.3857
     17 C3'         1.9404   -0.7419    0.5596 C.3       1 ACP         0.0978
     18 O3'         2.7418   -0.8086    1.7389 O.3       1 ACP        -0.5800
     19 C2'         0.7477    0.1630    0.7858 C.3       1 ACP         0.0885
     20 O2'         0.1373   -0.0577    2.0407 O.3       1 ACP        -0.5877
     21 C1'         1.3733    1.5427    0.6747 C.3       1 ACP         0.3822
     22 N9          0.4520    2.5240    0.1767 N.pl3     1 ACP        -0.4391
     23 C8          0.1798    2.8712   -1.2933 C.ar      1 ACP         0.1869
     24 N7         -0.7494    3.8400   -1.3610 N.2       1 ACP        -0.2730
     25 C5         -1.0173    4.0603   -0.0358 C.ar      1 ACP        -0.1385
     26 C6         -2.0105    5.0717    0.4241 C.ar      1 ACP         0.4818
     27 N6         -2.6723    5.7982   -0.4628 N.pl3     1 ACP        -0.8277
     28 N1         -2.1445    5.1522    1.7502 N.pl3     1 ACP        -0.6982
     29 C2         -1.3755    4.3143    2.6427 C.ar      1 ACP         0.6213
     30 N3         -0.5075    3.4292    2.2616 N.ar      1 ACP        -0.5099
     31 C4         -0.3667    3.3425    0.9070 C.ar      1 ACP         0.2813
     32 HOG3       -0.3699   -1.1910   -9.2723 H         1 ACP         0.4118
     33 H3B1        1.3454    1.0121   -5.8030 H         1 ACP         0.0929
     34 H3B2        2.0465    0.8145   -7.4054 H         1 ACP         0.0929
     35 HOA2        0.7087   -3.2740   -1.9196 H         1 ACP         0.4544
     36 H5'1        2.5576    0.5245   -2.5961 H         1 ACP         0.0887
     37 H5'2        1.1970   -0.4360   -1.9602 H         1 ACP         0.0887
     38 H4'         3.8046   -0.1390   -0.4012 H         1 ACP         0.1198
     39 H3'         1.6786   -1.7628    0.2719 H         1 ACP         0.0796
     40 HO3'        2.2231   -1.2979    2.3952 H         1 ACP         0.4356
     41 H2'         0.0002   -0.0084   -0.0014 H         1 ACP         0.0714
     42 HO2'       -0.1554   -0.9852    2.0577 H         1 ACP         0.4430
     43 H1'         1.7718    1.9211    1.6015 H         1 ACP         0.1194
     44 H8          0.6089    2.4651   -2.2147 H         1 ACP         0.2736
     45 HN61       -2.5055    5.6680   -1.4503 H         1 ACP         0.4770
     46 HN62       -3.3462    6.4841   -0.1542 H         1 ACP         0.4770
     47 H2         -1.5932    4.4937    3.7066 H         1 ACP         0.0919
     48 H48        -2.8098    5.8270    2.1160 H         1 ACP         0.4736
@<TRIPOS>BOND
     1    1    2 2
     2    1    3 1
     3    1    4 1
     4    1    8 1
     5    4   32 1
     6    5    6 2
     7    5    7 1
     8    5    8 1
     9    5   12 1
    10    8   33 1
    11    8   34 1
    12    9   10 2
    13    9   11 1
    14    9   12 1
    15    9   13 1
    16   11   35 1
    17   13   14 1
    18   14   15 1
    19   14   36 1
    20   14   37 1
    21   15   16 1
    22   15   17 1
    23   15   38 1
    24   16   21 1
    25   17   18 1
    26   17   19 1
    27   17   39 1
    28   18   40 1
    29   19   20 1
    30   19   21 1
    31   19   41 1
    32   20   42 1
    33   21   22 1
    34   21   43 1
    35   22   23 ar
    36   22   31 ar
    37   23   24 ar
    38   23   44 1
    39   24   25 ar
    40   25   26 ar
    41   25   31 ar
    42   26   27 1
    43   26   28 ar
    44   27   45 1
    45   27   46 1
    46   28   29 ar
    47   28   48 1
    48   29   30 ar
    49   29   47 1
    50   30   31 ar
@<TRIPOS>SUBSTRUCTURE
     1 ACP         1 GROUP 0 A     ****
@<TRIPOS>MOLECULE
[[5-(6-amino-1,8-dihydropurine-6,8-diylium-7-id-9-yl)-3,4-dihydroxy-tetrahydrofuran-2-yl]methoxy-hydroxy-phosphoryl]oxy-[[hydroxy(oxido)phosphoryl]methyl]phosphinate
   48    50     1     0     0
SMALL
USER_CHARGES

@<TRIPOS>ATOM
      1 PG         -1.5697    0.9612   -6.2151 P.3       1 ACP         1.3752
      2 O1G        -3.0285    1.0535   -5.8329 O.co2     1 ACP        -0.8816
      3 O2G        -0.8611   -0.3651   -6.3666 O.co2     1 ACP        -0.8816
      4 O3G        -1.2999    1.8717   -7.5413 O.3       1 ACP        -0.7903
      5 PB          1.2306    2.1525   -5.0665 P.3       1 ACP         1.5257
      6 O1B         1.6275    3.0428   -3.9113 O.co2     1 ACP        -0.8730
      7 O2B         1.6010    2.4829   -6.4941 O.co2     1 ACP        -0.8730
      8 C3B        -0.6059    1.9659   -5.0018 C.3       1 ACP        -0.5822
      9 PA          3.0847   -0.0765   -4.4165 P.3       1 ACP         1.7803
     10 O1A         4.2250    0.4181   -5.2579 O.2       1 ACP        -0.8736
     11 O2A         2.7758   -1.6569   -4.5733 O.3       1 ACP        -0.7984
     12 O3A         1.6600    0.6190   -4.7286 O.3       1 ACP        -0.7763
     13 O5'         3.2872    0.1331   -2.8242 O.3       1 ACP        -0.5927
     14 C5'         2.2816   -0.2918   -1.9206 C.3       1 ACP         0.1349
     15 C4'         2.7248    0.0226   -0.4980 C.3       1 ACP         0.1151
     16 O4'         2.4697    1.4219   -0.2462 O.3       1 ACP        -0.3857
     17 C3'         1.9404   -0.7419    0.5596 C.3       1 ACP         0.0978
     18 O3'         2.7418   -0.8086    1.7389 O.3       1 ACP        -0.5800
     19 C2'         0.7477    0.1630    0.7858 C.3       1 ACP         0.0885
     20 O2'         0.1373   -0.0577    2.0407 O.3       1 ACP        -0.5877
     21 C1'         1.3733    1.5427    0.6747 C.3       1 ACP         0.3822
     22 N9          0.4520    2.5240    0.1767 N.pl3     1 ACP        -0.4391
     23 C8         -1.0660    2.5608    0.3999 C.ar      1 ACP         0.1869
     24 N7         -1.5852    3.6333   -0.2221 N.2       1 ACP        -0.2730
     25 C5         -0.4682    4.1996   -0.7771 C.ar      1 ACP        -0.1385
     26 C6         -0.5216    5.4476   -1.5899 C.ar      1 ACP         0.4818
     27 N6         -1.6813    6.0510   -1.7982 N.pl3     1 ACP        -0.8277
     28 N1          0.6621    5.8575   -2.0523 N.pl3     1 ACP        -0.6982
     29 C2          1.8795    5.1301   -1.7717 C.ar      1 ACP         0.6213
     30 N3          1.9458    4.0434   -1.0670 N.ar      1 ACP        -0.5099
     31 C4          0.7388    3.6199   -0.5917 C.ar      1 ACP         0.2813
     32 HOG3       -1.7898    1.6570   -8.3636 H         1 ACP         0.4118
     33 H3B1       -0.8510    1.5697   -4.0112 H         1 ACP         0.0929
     34 H3B2       -1.0133    2.9822   -5.0489 H         1 ACP         0.0929
     35 HOA2        3.4794   -2.3021   -4.3479 H         1 ACP         0.4544
     36 H5'1        1.3493    0.2322   -2.1551 H         1 ACP         0.0887
     37 H5'2        2.1259   -1.3686   -2.0434 H         1 ACP         0.0887
     38 H4'         3.8046   -0.1390   -0.4012 H         1 ACP         0.1198
     39 H3'         1.6786   -1.7628    0.2719 H         1 ACP         0.0796
     40 HO3'        2.2231   -1.2979    2.3952 H         1 ACP         0.4356
     41 H2'         0.0002   -0.0084   -0.0014 H         1 ACP         0.0714
     42 HO2'       -0.1554   -0.9852    2.0577 H         1 ACP         0.4430
     43 H1'         1.7718    1.9211    1.6015 H         1 ACP         0.1194
     44 H8         -1.7235    1.8833    0.9537 H         1 ACP         0.2736
     45 HN61       -2.5296    5.6672   -1.4072 H         1 ACP         0.4770
     46 HN62       -1.7205    6.8969   -2.3483 H         1 ACP         0.4770
     47 H2          2.7750    5.5878   -2.2190 H         1 ACP         0.0919
     48 H48         0.6808    6.7046   -2.6128 H         1 ACP         0.4736
@<TRIPOS>BOND
     1    1    2 2
     2    1    3 1
     3    1    4 1
     4    1    8 1
     5    4   32 1
     6    5    6 2
     7    5    7 1
     8    5    8 1
     9    5   12 1
    10    8   33 1
    11    8   34 1
    12    9   10 2
    13    9   11 1
    14    9   12 1
    15    9   13 1
    16   11   35 1
    17   13   14 1
    18   14   15 1
    19   14   36 1
    20   14   37 1
    21   15   16 1
    22   15   17 1
    23   15   38 1
    24   16   21 1
    25   17   18 1
    26   17   19 1
    27   17   39 1
    28   18   40 1
    29   19   20 1
    30   19   21 1
    31   19   41 1
    32   20   42 1
    33   21   22 1
    34   21   43 1
    35   22   23 ar
    36   22   31 ar
    37   23   24 ar
    38   23   44 1
    39   24   25 ar
    40   25   26 ar
    41   25   31 ar
    42   26   27 1
    43   26   28 ar
    44   27   45 1
    45   27   46 1
    46   28   29 ar
    47   28   48 1
    48   29   30 ar
    49   29   47 1
    50   30   31 ar
@<TRIPOS>SUBSTRUCTURE
     1 ACP         1 GROUP 0 A     ****
@<TRIPOS>MOLECULE
[[5-(6-amino-1,8-dihydropurine-6,8-diylium-7-id-9-yl)-3,4-dihydroxy-tetrahydrofuran-2-yl]methoxy-hydroxy-phosphoryl]oxy-[[hydroxy(oxido)phosphoryl]methyl]phosphinate
   48    50     1     0     0
SMALL
USER_CHARGES

@<TRIPOS>ATOM
      1 PG          7.7860    0.6592   -3.8292 P.3       1 ACP         1.3752
      2 O1G         8.4058    2.0013   -3.5172 O.co2     1 ACP        -0.8816
      3 O2G         6.7576    0.4837   -4.9227 O.co2     1 ACP        -0.8816
      4 O3G         8.9664   -0.4509   -4.0154 O.3       1 ACP        -0.7903
      5 PB          6.1747   -1.6197   -2.1587 P.3       1 ACP         1.5257
      6 O1B         5.7241   -1.7858   -0.7256 O.co2     1 ACP        -0.8730
      7 O2B         7.0432   -2.6471   -2.8477 O.co2     1 ACP        -0.8730
      8 C3B         7.0482    0.0042   -2.2682 C.3       1 ACP        -0.5822
      9 PA          3.5143   -2.0869   -3.3967 P.3       1 ACP         1.7803
     10 O1A         3.6810   -3.5683   -3.5713 O.2       1 ACP        -0.8736
     11 O2A         2.9125   -1.3257   -4.6915 O.3       1 ACP        -0.7984
     12 O3A         4.8811   -1.2823   -3.0877 O.3       1 ACP        -0.7763
     13 O5'         2.5233   -1.6621   -2.1894 O.3       1 ACP        -0.5927
     14 C5'         2.2816   -0.2918   -1.9206 C.3       1 ACP         0.1349
     15 C4'         2.7248    0.0226   -0.4980 C.3       1 ACP         0.1151
     16 O4'         2.4697    1.4219   -0.2462 O.3       1 ACP        -0.3857
     17 C3'         1.9404   -0.7419    0.5596 C.3       1 ACP         0.0978
     18 O3'         2.7418   -0.8086    1.7389 O.3       1 ACP        -0.5800
     19 C2'         0.7477    0.1630    0.7858 C.3       1 ACP         0.0885
     20 O2'         0.1373   -0.0577    2.0407 O.3       1 ACP        -0.5877
     21 C1'         1.3733    1.5427    0.6747 C.3       1 ACP         0.3822
     22 N9          0.4520    2.5240    0.1767 N.pl3     1 ACP        -0.4391
     23 C8          0.1798    2.8712   -1.2933 C.ar      1 ACP         0.1869
     24 N7         -0.7494    3.8400   -1.3610 N.2       1 ACP        -0.2730
     25 C5         -1.0173    4.0603   -0.0358 C.ar      1 ACP        -0.1385
     26 C6         -2.0105    5.0717    0.4241 C.ar      1 ACP         0.4818
     27 N6         -2.6723    5.7982   -0.4628 N.pl3     1 ACP        -0.8277
     28 N1         -2.1445    5.1522    1.7502 N.pl3     1 ACP        -0.6982
     29 C2         -1.3755    4.3143    2.6427 C.ar      1 ACP         0.6213
     30 N3         -0.5075    3.4292    2.2616 N.ar      1 ACP        -0.5099
     31 C4         -0.3667    3.3425    0.9070 C.ar      1 ACP         0.2813
     32 HOG3        9.6329   -0.3110   -4.7215 H         1 ACP         0.4118
     33 H3B1        6.3470    0.7673   -1.9157 H         1 ACP         0.0929
     34 H3B2        7.8631   -0.0429   -1.5368 H         1 ACP         0.0929
     35 HOA2        2.0268   -1.5842   -5.0242 H         1 ACP         0.4544
     36 H5'1        2.8428    0.3151   -2.6386 H         1 ACP         0.0887
     37 H5'2        1.2124   -0.0895   -2.0416 H         1 ACP         0.0887
     38 H4'         3.8046   -0.1390   -0.4012 H         1 ACP         0.1198
     39 H3'         1.6786   -1.7628    0.2719 H         1 ACP         0.0796
     40 HO3'        3.5553   -1.2733    1.4913 H         1 ACP         0.4356
     41 H2'         0.0002   -0.0084   -0.0014 H         1 ACP         0.0714
     42 HO2'       -0.1554   -0.9852    2.0577 H         1 ACP         0.4430
     43 H1'         1.7718    1.9211    1.6015 H         1 ACP         0.1194
     44 H8          0.6089    2.4651   -2.2147 H         1 ACP         0.2736
     45 HN61       -2.5055    5.6680   -1.4503 H         1 ACP         0.4770
     46 HN62       -3.3462    6.4841   -0.1542 H         1 ACP         0.4770
     47 H2         -1.5932    4.4937    3.7066 H         1 ACP         0.0919
     48 H48        -2.8098    5.8270    2.1160 H         1 ACP         0.4736
@<TRIPOS>BOND
     1    1    2 2
     2    1    3 1
     3    1    4 1
     4    1    8 1
     5    4   32 1
     6    5    6 2
     7    5    7 1
     8    5    8 1
     9    5   12 1
    10    8   33 1
    11    8   34 1
    12    9   10 2
    13    9   11 1
    14    9   12 1
    15    9   13 1
    16   11   35 1
    17   13   14 1
    18   14   15 1
    19   14   36 1
    20   14   37 1
    21   15   16 1
    22   15   17 1
    23   15   38 1
    24   16   21 1
    25   17   18 1
    26   17   19 1
    27   17   39 1
    28   18   40 1
    29   19   20 1
    30   19   21 1
    31   19   41 1
    32   20   42 1
    33   21   22 1
    34   21   43 1
    35   22   23 ar
    36   22   31 ar
    37   23   24 ar
    38   23   44 1
    39   24   25 ar
    40   25   26 ar
    41   25   31 ar
    42   26   27 1
    43   26   28 ar
    44   27   45 1
    45   27   46 1
    46   28   29 ar
    47   28   48 1
    48   29   30 ar
    49   29   47 1
    50   30   31 ar
@<TRIPOS>SUBSTRUCTURE
     1 ACP         1 GROUP 0 A     ****
@<TRIPOS>MOLECULE
[[5-(6-amino-1,8-dihydropurine-6,8-diylium-7-id-9-yl)-3,4-dihydroxy-tetrahydrofuran-2-yl]methoxy-hydroxy-phosphoryl]oxy-[[hydroxy(oxido)phosphoryl]methyl]phosphinate
   48    50     1     0     0
SMALL
USER_CHARGES

@<TRIPOS>ATOM
      1 PG          1.5364   -4.4725   -4.6662 P.3       1 ACP         1.3752
      2 O1G         0.2090   -5.1764   -4.8244 O.co2     1 ACP        -0.8816
      3 O2G         1.9757   -3.8719   -3.3507 O.co2     1 ACP        -0.8816
      4 O3G         2.7258   -5.4246   -5.2487 O.3       1 ACP        -0.7903
      5 PB          3.0643   -2.0015   -6.1293 P.3       1 ACP         1.5257
      6 O1B         2.7429   -1.0612   -7.2681 O.co2     1 ACP        -0.8730
      7 O2B         4.3116   -2.8551   -6.1254 O.co2     1 ACP        -0.8730
      8 C3B         1.6189   -3.1356   -5.9375 C.3       1 ACP        -0.5822
      9 PA          3.9484   -0.1820   -3.9530 P.3       1 ACP         1.7803
     10 O1A         4.6731    0.7855   -4.8427 O.2       1 ACP        -0.8736
     11 O2A         4.9159   -1.1727   -3.1161 O.3       1 ACP        -0.7984
     12 O3A         2.9484   -1.1921   -4.7216 O.3       1 ACP        -0.7763
     13 O5'         3.0189    0.5129   -2.8246 O.3       1 ACP        -0.5927
     14 C5'         2.2816   -0.2918   -1.9206 C.3       1 ACP         0.1349
     15 C4'         2.7248    0.0226   -0.4980 C.3       1 ACP         0.1151
     16 O4'         2.4697    1.4219   -0.2462 O.3       1 ACP        -0.3857
     17 C3'         1.9404   -0.7419    0.5596 C.3       1 ACP         0.0978
     18 O3'         2.7418   -0.8086    1.7389 O.3       1 ACP        -0.5800
     19 C2'         0.7477    0.1630    0.7858 C.3       1 ACP         0.0885
     20 O2'         0.1373   -0.0577    2.0407 O.3       1 ACP        -0.5877
     21 C1'         1.3733    1.5427    0.6747 C.3       1 ACP         0.3822
     22 N9          0.4520    2.5240    0.1767 N.pl3     1 ACP        -0.4391
     23 C8         -0.3054    2.4845   -1.1576 C.ar      1 ACP         0.1869
     24 N7         -1.0755    3.5806   -1.2691 N.2       1 ACP        -0.2730
     25 C5         -0.8043    4.2306   -0.0942 C.ar      1 ACP        -0.1385
     26 C6         -1.4324    5.5335    0.2646 C.ar      1 ACP         0.4818
     27 N6         -2.2885    6.1055   -0.5675 N.pl3     1 ACP        -0.8277
     28 N1         -1.0537    6.0229    1.4479 N.pl3     1 ACP        -0.6982
     29 C2         -0.1096    5.3242    2.2908 C.ar      1 ACP         0.6213
     30 N3          0.4468    4.1904    1.9960 N.ar      1 ACP        -0.5099
     31 C4          0.0631    3.6855    0.7877 C.ar      1 ACP         0.2813
     32 HOG3        2.8591   -6.3076   -4.8428 H         1 ACP         0.4118
     33 H3B1        0.7384   -2.5049   -5.7780 H         1 ACP         0.0929
     34 H3B2        1.4894   -3.6247   -6.9096 H         1 ACP         0.0929
     35 HOA2        5.5673   -0.7850   -2.4937 H         1 ACP         0.4544
     36 H5'1        1.2148   -0.0787   -2.0445 H         1 ACP         0.0887
     37 H5'2        2.4640   -1.3460   -2.1537 H         1 ACP         0.0887
     38 H4'         3.8046   -0.1390   -0.4012 H         1 ACP         0.1198
     39 H3'         1.6786   -1.7628    0.2719 H         1 ACP         0.0796
     40 HO3'        2.2231   -1.2979    2.3952 H         1 ACP         0.4356
     41 H2'         0.0002   -0.0084   -0.0014 H         1 ACP         0.0714
     42 HO2'       -0.6132    0.5577    2.1063 H         1 ACP         0.4430
     43 H1'         1.7718    1.9211    1.6015 H         1 ACP         0.1194
     44 H8         -0.2991    1.7413   -1.9611 H         1 ACP         0.2736
     45 HN61       -2.5167    5.6603   -1.4447 H         1 ACP         0.4770
     46 HN62       -2.7159    6.9882   -0.3270 H         1 ACP         0.4770
     47 H2          0.1059    5.8491    3.2340 H         1 ACP         0.0919
     48 H48        -1.4532    6.9099    1.7401 H         1 ACP         0.4736
@<TRIPOS>BOND
     1    1    2 2
     2    1    3 1
     3    1    4 1
     4    1    8 1
     5    4   32 1
     6    5    6 2
     7    5    7 1
     8    5    8 1
     9    5   12 1
    10    8   33 1
    11    8   34 1
    12    9   10 2
    13    9   11 1
    14    9   12 1
    15    9   13 1
    16   11   35 1
    17   13   14 1
    18   14   15 1
    19   14   36 1
    20   14   37 1
    21   15   16 1
    22   15   17 1
    23   15   38 1
    24   16   21 1
    25   17   18 1
    26   17   19 1
    27   17   39 1
    28   18   40 1
    29   19   20 1
    30   19   21 1
    31   19   41 1
    32   20   42 1
    33   21   22 1
    34   21   43 1
    35   22   23 ar
    36   22   31 ar
    37   23   24 ar
    38   23   44 1
    39   24   25 ar
    40   25   26 ar
    41   25   31 ar
    42   26   27 1
    43   26   28 ar
    44   27   45 1
    45   27   46 1
    46   28   29 ar
    47   28   48 1
    48   29   30 ar
    49   29   47 1
    50   30   31 ar
@<TRIPOS>SUBSTRUCTURE
     1 ACP         1 GROUP 0 A     ****
@<TRIPOS>MOLECULE
[[5-(6-amino-1,8-dihydropurine-6,8-diylium-7-id-9-yl)-3,4-dihydroxy-tetrahydrofuran-2-yl]methoxy-hydroxy-phosphoryl]oxy-[[hydroxy(oxido)phosphoryl]methyl]phosphinate
   48    50     1     0     0
SMALL
USER_CHARGES

@<TRIPOS>ATOM
      1 PG         -6.1182   -5.8148    4.4032 P.3       1 ACP         1.3752
      2 O1G        -7.1644   -4.8109    4.8278 O.co2     1 ACP        -0.8816
      3 O2G        -5.0216   -6.2758    5.3355 O.co2     1 ACP        -0.8816
      4 O3G        -6.8521   -7.1159    3.7482 O.3       1 ACP        -0.7903
      5 PB         -3.9560   -6.0611    1.9856 P.3       1 ACP         1.5257
      6 O1B        -3.5685   -5.2100    0.7982 O.co2     1 ACP        -0.8730
      7 O2B        -4.3912   -7.5001    1.8294 O.co2     1 ACP        -0.8730
      8 C3B        -5.3072   -5.1692    2.8748 C.3       1 ACP        -0.5822
      9 PA         -1.2169   -6.3318    3.1048 P.3       1 ACP         1.7803
     10 O1A        -0.9123   -7.7724    2.8137 O.2       1 ACP        -0.8736
     11 O2A        -0.6967   -5.8179    4.5481 O.3       1 ACP        -0.7984
     12 O3A        -2.7893   -5.9600    3.1165 O.3       1 ACP        -0.7763
     13 O5'        -0.5703   -5.2848    2.0532 O.3       1 ACP        -0.5927
     14 C5'        -0.7840   -3.8935    2.2172 C.3       1 ACP         0.1349
     15 C4'        -0.0724   -3.1466    1.1027 C.3       1 ACP         0.1151
     16 O4'        -0.8674   -3.1929   -0.0945 O.3       1 ACP        -0.3857
     17 C3'         0.1338   -1.6715    1.4027 C.3       1 ACP         0.0978
     18 O3'         1.2893   -1.4445    2.1808 O.3       1 ACP        -0.5800
     19 C2'         0.2158   -1.0724    0.0128 C.3       1 ACP         0.0885
     20 O2'         1.5141   -1.2448   -0.5513 O.3       1 ACP        -0.5877
     21 C1'        -0.7897   -1.9176   -0.7583 C.3       1 ACP         0.3822
     22 N9         -2.1040   -1.3333   -0.7704 N.pl3     1 ACP        -0.4391
     23 C8         -3.2124   -1.5345    0.2719 C.ar      1 ACP         0.1869
     24 N7         -4.2964   -0.8234   -0.0828 N.2       1 ACP        -0.2730
     25 C5         -3.8754   -0.2386   -1.2478 C.ar      1 ACP        -0.1385
     26 C6         -4.7432    0.6719   -2.0470 C.ar      1 ACP         0.4818
     27 N6         -5.9725    0.9415   -1.6366 N.pl3     1 ACP        -0.8277
     28 N1         -4.1703    1.1517   -3.1536 N.pl3     1 ACP        -0.6982
     29 C2         -2.8174    0.7994   -3.5215 C.ar      1 ACP         0.6213
     30 N3         -2.0475    0.0097   -2.8393 N.ar      1 ACP        -0.5099
     31 C4         -2.6278   -0.4836   -1.7071 C.ar      1 ACP         0.2813
     32 HOG3       -7.4808   -7.6263    4.3019 H         1 ACP         0.4118
     33 H3B1       -4.9208   -4.1767    3.1277 H         1 ACP         0.0929
     34 H3B2       -6.1060   -5.0229    2.1389 H         1 ACP         0.0929
     35 HOA2        0.2627   -5.8593    4.7485 H         1 ACP         0.4544
     36 H5'1       -1.8600   -3.6934    2.1849 H         1 ACP         0.0887
     37 H5'2       -0.3935   -3.5869    3.1930 H         1 ACP         0.0887
     38 H4'         0.8883   -3.6448    0.8784 H         1 ACP         0.1198
     39 H3'        -0.7368   -1.2358    1.9871 H         1 ACP         0.0796
     40 HO3'        1.3407   -0.4871    2.3218 H         1 ACP         0.4356
     41 H2'        -0.0343   -0.0280    0.0196 H         1 ACP         0.0714
     42 HO2'        2.1443   -0.7955    0.0378 H         1 ACP         0.4430
     43 H1'        -0.5175   -2.1046   -1.7826 H         1 ACP         0.1194
     44 H8         -3.2310   -2.1319    1.1889 H         1 ACP         0.2736
     45 HN61       -6.3230    0.5316   -0.7829 H         1 ACP         0.4770
     46 HN62       -6.5628    1.5584   -2.1760 H         1 ACP         0.4770
     47 H2         -2.4822    1.2710   -4.4579 H         1 ACP         0.0919
     48 H48        -4.7200    1.7780   -3.7346 H         1 ACP         0.4736
@<TRIPOS>BOND
     1    1    2 2
     2    1    3 1
     3    1    4 1
     4    1    8 1
     5    4   32 1
     6    5    6 2
     7    5    7 1
     8    5    8 1
     9    5   12 1
    10    8   33 1
    11    8   34 1
    12    9   10 2
    13    9   11 1
    14    9   12 1
    15    9   13 1
    16   11   35 1
    17   13   14 1
    18   14   15 1
    19   14   36 1
    20   14   37 1
    21   15   16 1
    22   15   17 1
    23   15   38 1
    24   16   21 1
    25   17   18 1
    26   17   19 1
    27   17   39 1
    28   18   40 1
    29   19   20 1
    30   19   21 1
    31   19   41 1
    32   20   42 1
    33   21   22 1
    34   21   43 1
    35   22   23 ar
    36   22   31 ar
    37   23   24 ar
    38   23   44 1
    39   24   25 ar
    40   25   26 ar
    41   25   31 ar
    42   26   27 1
    43   26   28 ar
    44   27   45 1
    45   27   46 1
    46   28   29 ar
    47   28   48 1
    48   29   30 ar
    49   29   47 1
    50   30   31 ar
@<TRIPOS>SUBSTRUCTURE
     1 ACP         1 GROUP 0 A     ****
@<TRIPOS>MOLECULE
[[5-(6-amino-1,8-dihydropurine-6,8-diylium-7-id-9-yl)-3,4-dihydroxy-tetrahydrofuran-2-yl]methoxy-hydroxy-phosphoryl]oxy-[[hydroxy(oxido)phosphoryl]methyl]phosphinate
   48    50     1     0     0
SMALL
USER_CHARGES

@<TRIPOS>ATOM
      1 PG          6.9626    1.4055   -1.0382 P.3       1 ACP         1.3752
      2 O1G         7.3611    2.2687    0.1360 O.co2     1 ACP        -0.8816
      3 O2G         5.6530    1.5965   -1.7681 O.co2     1 ACP        -0.8816
      4 O3G         8.1828    1.3678   -2.1199 O.3       1 ACP        -0.7903
      5 PB          6.6313   -1.7823   -1.5938 P.3       1 ACP         1.5257
      6 O1B         6.8130   -3.0411   -0.7771 O.co2     1 ACP        -0.8730
      7 O2B         7.3602   -1.5648   -2.8999 O.co2     1 ACP        -0.8730
      8 C3B         7.0371   -0.3568   -0.4914 C.3       1 ACP        -0.5822
      9 PA          3.9434   -2.1258   -2.8126 P.3       1 ACP         1.7803
     10 O1A         4.0658   -3.6032   -3.0475 O.2       1 ACP        -0.8736
     11 O2A         4.1069   -1.2223   -4.1449 O.3       1 ACP        -0.7984
     12 O3A         5.0402   -1.5068   -1.8003 O.3       1 ACP        -0.7763
     13 O5'         2.5233   -1.6621   -2.1894 O.3       1 ACP        -0.5927
     14 C5'         2.2816   -0.2918   -1.9206 C.3       1 ACP         0.1349
     15 C4'         2.7248    0.0226   -0.4980 C.3       1 ACP         0.1151
     16 O4'         2.4697    1.4219   -0.2462 O.3       1 ACP        -0.3857
     17 C3'         1.9404   -0.7419    0.5596 C.3       1 ACP         0.0978
     18 O3'         2.7418   -0.8086    1.7389 O.3       1 ACP        -0.5800
     19 C2'         0.7477    0.1630    0.7858 C.3       1 ACP         0.0885
     20 O2'         0.1373   -0.0577    2.0407 O.3       1 ACP        -0.5877
     21 C1'         1.3733    1.5427    0.6747 C.3       1 ACP         0.3822
     22 N9          0.4520    2.5240    0.1767 N.pl3     1 ACP        -0.4391
     23 C8          0.1798    2.8712   -1.2933 C.ar      1 ACP         0.1869
     24 N7         -0.7494    3.8400   -1.3610 N.2       1 ACP        -0.2730
     25 C5         -1.0173    4.0603   -0.0358 C.ar      1 ACP        -0.1385
     26 C6         -2.0105    5.0717    0.4241 C.ar      1 ACP         0.4818
     27 N6         -2.6723    5.7982   -0.4628 N.pl3     1 ACP        -0.8277
     28 N1         -2.1445    5.1522    1.7502 N.pl3     1 ACP        -0.6982
     29 C2         -1.3755    4.3143    2.6427 C.ar      1 ACP         0.6213
     30 N3         -0.5075    3.4292    2.2616 N.ar      1 ACP        -0.5099
     31 C4         -0.3667    3.3425    0.9070 C.ar      1 ACP         0.2813
     32 HOG3        8.4808    2.2132   -2.5184 H         1 ACP         0.4118
     33 H3B1        6.3839   -0.4350    0.3836 H         1 ACP         0.0929
     34 H3B2        8.0613   -0.5292   -0.1416 H         1 ACP         0.0929
     35 HOA2        4.9458   -1.2710   -4.6507 H         1 ACP         0.4544
     36 H5'1        2.8428    0.3151   -2.6386 H         1 ACP         0.0887
     37 H5'2        1.2124   -0.0895   -2.0416 H         1 ACP         0.0887
     38 H4'         3.8046   -0.1390   -0.4012 H         1 ACP         0.1198
     39 H3'         1.6786   -1.7628    0.2719 H         1 ACP         0.0796
     40 HO3'        2.2231   -1.2979    2.3952 H         1 ACP         0.4356
     41 H2'         0.0002   -0.0084   -0.0014 H         1 ACP         0.0714
     42 HO2'       -0.6132    0.5577    2.1063 H         1 ACP         0.4430
     43 H1'         1.7718    1.9211    1.6015 H         1 ACP         0.1194
     44 H8          0.6089    2.4651   -2.2147 H         1 ACP         0.2736
     45 HN61       -2.5055    5.6680   -1.4503 H         1 ACP         0.4770
     46 HN62       -3.3462    6.4841   -0.1542 H         1 ACP         0.4770
     47 H2         -1.5932    4.4937    3.7066 H         1 ACP         0.0919
     48 H48        -2.8098    5.8270    2.1160 H         1 ACP         0.4736
@<TRIPOS>BOND
     1    1    2 2
     2    1    3 1
     3    1    4 1
     4    1    8 1
     5    4   32 1
     6    5    6 2
     7    5    7 1
     8    5    8 1
     9    5   12 1
    10    8   33 1
    11    8   34 1
    12    9   10 2
    13    9   11 1
    14    9   12 1
    15    9   13 1
    16   11   35 1
    17   13   14 1
    18   14   15 1
    19   14   36 1
    20   14   37 1
    21   15   16 1
    22   15   17 1
    23   15   38 1
    24   16   21 1
    25   17   18 1
    26   17   19 1
    27   17   39 1
    28   18   40 1
    29   19   20 1
    30   19   21 1
    31   19   41 1
    32   20   42 1
    33   21   22 1
    34   21   43 1
    35   22   23 ar
    36   22   31 ar
    37   23   24 ar
    38   23   44 1
    39   24   25 ar
    40   25   26 ar
    41   25   31 ar
    42   26   27 1
    43   26   28 ar
    44   27   45 1
    45   27   46 1
    46   28   29 ar
    47   28   48 1
    48   29   30 ar
    49   29   47 1
    50   30   31 ar
@<TRIPOS>SUBSTRUCTURE
     1 ACP         1 GROUP 0 A     ****
@<TRIPOS>MOLECULE
[[5-(6-amino-1,8-dihydropurine-6,8-diylium-7-id-9-yl)-3,4-dihydroxy-tetrahydrofuran-2-yl]methoxy-hydroxy-phosphoryl]oxy-[[hydroxy(oxido)phosphoryl]methyl]phosphinate
   48    50     1     0     0
SMALL
USER_CHARGES

@<TRIPOS>ATOM
      1 PG          0.7136    1.5877   -5.9843 P.3       1 ACP         1.3752
      2 O1G         1.2896    2.6961   -6.8343 O.co2     1 ACP        -0.8816
      3 O2G         0.9367    1.5217   -4.4909 O.co2     1 ACP        -0.8816
      4 O3G        -0.8798    1.4377   -6.2991 O.3       1 ACP        -0.7903
      5 PB          0.8219   -1.6632   -5.9899 P.3       1 ACP         1.5257
      6 O1B         1.4772   -2.7161   -6.8538 O.co2     1 ACP        -0.8730
      7 O2B        -0.6686   -1.6490   -5.7395 O.co2     1 ACP        -0.8730
      8 C3B         1.2784   -0.0193   -6.6977 C.3       1 ACP        -0.5822
      9 PA          1.5744   -2.4620   -3.2287 P.3       1 ACP         1.7803
     10 O1A         1.9413   -3.9047   -3.4206 O.2       1 ACP        -0.8736
     11 O2A         0.0769   -2.2234   -2.6641 O.3       1 ACP        -0.7984
     12 O3A         1.6176   -1.5665   -4.5730 O.3       1 ACP        -0.7763
     13 O5'         2.5233   -1.6621   -2.1894 O.3       1 ACP        -0.5927
     14 C5'         2.2816   -0.2918   -1.9206 C.3       1 ACP         0.1349
     15 C4'         2.7248    0.0226   -0.4980 C.3       1 ACP         0.1151
     16 O4'         2.4697    1.4219   -0.2462 O.3       1 ACP        -0.3857
     17 C3'         1.9404   -0.7419    0.5596 C.3       1 ACP         0.0978
     18 O3'         2.7418   -0.8086    1.7389 O.3       1 ACP        -0.5800
     19 C2'         0.7477    0.1630    0.7858 C.3       1 ACP         0.0885
     20 O2'         0.1373   -0.0577    2.0407 O.3       1 ACP        -0.5877
     21 C1'         1.3733    1.5427    0.6747 C.3       1 ACP         0.3822
     22 N9          0.4520    2.5240    0.1767 N.pl3     1 ACP        -0.4391
     23 C8         -1.0660    2.5608    0.3999 C.ar      1 ACP         0.1869
     24 N7         -1.5852    3.6333   -0.2221 N.2       1 ACP        -0.2730
     25 C5         -0.4682    4.1996   -0.7771 C.ar      1 ACP        -0.1385
     26 C6         -0.5216    5.4476   -1.5899 C.ar      1 ACP         0.4818
     27 N6         -1.6813    6.0510   -1.7982 N.pl3     1 ACP        -0.8277
     28 N1          0.6621    5.8575   -2.0523 N.pl3     1 ACP        -0.6982
     29 C2          1.8795    5.1301   -1.7717 C.ar      1 ACP         0.6213
     30 N3          1.9458    4.0434   -1.0670 N.ar      1 ACP        -0.5099
     31 C4          0.7388    3.6199   -0.5917 C.ar      1 ACP         0.2813
     32 HOG3       -1.4633    2.2092   -6.1362 H         1 ACP         0.4118
     33 H3B1        2.3720    0.0235   -6.7240 H         1 ACP         0.0929
     34 H3B2        0.9344   -0.0338   -7.7381 H         1 ACP         0.0929
     35 HOA2       -0.1681   -2.6049   -1.7943 H         1 ACP         0.4544
     36 H5'1        2.8428    0.3151   -2.6386 H         1 ACP         0.0887
     37 H5'2        1.2124   -0.0895   -2.0416 H         1 ACP         0.0887
     38 H4'         3.8046   -0.1390   -0.4012 H         1 ACP         0.1198
     39 H3'         1.6786   -1.7628    0.2719 H         1 ACP         0.0796
     40 HO3'        2.2231   -1.2979    2.3952 H         1 ACP         0.4356
     41 H2'         0.0002   -0.0084   -0.0014 H         1 ACP         0.0714
     42 HO2'       -0.1554   -0.9852    2.0577 H         1 ACP         0.4430
     43 H1'         1.7718    1.9211    1.6015 H         1 ACP         0.1194
     44 H8         -1.7235    1.8833    0.9537 H         1 ACP         0.2736
     45 HN61       -2.5296    5.6672   -1.4072 H         1 ACP         0.4770
     46 HN62       -1.7205    6.8969   -2.3483 H         1 ACP         0.4770
     47 H2          2.7750    5.5878   -2.2190 H         1 ACP         0.0919
     48 H48         0.6808    6.7046   -2.6128 H         1 ACP         0.4736
@<TRIPOS>BOND
     1    1    2 2
     2    1    3 1
     3    1    4 1
     4    1    8 1
     5    4   32 1
     6    5    6 2
     7    5    7 1
     8    5    8 1
     9    5   12 1
    10    8   33 1
    11    8   34 1
    12    9   10 2
    13    9   11 1
    14    9   12 1
    15    9   13 1
    16   11   35 1
    17   13   14 1
    18   14   15 1
    19   14   36 1
    20   14   37 1
    21   15   16 1
    22   15   17 1
    23   15   38 1
    24   16   21 1
    25   17   18 1
    26   17   19 1
    27   17   39 1
    28   18   40 1
    29   19   20 1
    30   19   21 1
    31   19   41 1
    32   20   42 1
    33   21   22 1
    34   21   43 1
    35   22   23 ar
    36   22   31 ar
    37   23   24 ar
    38   23   44 1
    39   24   25 ar
    40   25   26 ar
    41   25   31 ar
    42   26   27 1
    43   26   28 ar
    44   27   45 1
    45   27   46 1
    46   28   29 ar
    47   28   48 1
    48   29   30 ar
    49   29   47 1
    50   30   31 ar
@<TRIPOS>SUBSTRUCTURE
     1 ACP         1 GROUP 0 A     ****
@<TRIPOS>MOLECULE
[[5-(6-amino-1,8-dihydropurine-6,8-diylium-7-id-9-yl)-3,4-dihydroxy-tetrahydrofuran-2-yl]methoxy-hydroxy-phosphoryl]oxy-[[hydroxy(oxido)phosphoryl]methyl]phosphinate
   48    50     1     0     0
SMALL
USER_CHARGES

@<TRIPOS>ATOM
      1 PG         -5.2438   -2.9713    4.4230 P.3       1 ACP         1.3752
      2 O1G        -6.3156   -2.0153    3.9539 O.co2     1 ACP        -0.8816
      3 O2G        -3.7716   -2.6609    4.2800 O.co2     1 ACP        -0.8816
      4 O3G        -5.5541   -3.4187    5.9606 O.3       1 ACP        -0.7903
      5 PB         -4.4837   -6.0864    3.8761 P.3       1 ACP         1.5257
      6 O1B        -5.0599   -7.2025    3.0355 O.co2     1 ACP        -0.8730
      7 O2B        -4.2807   -6.2315    5.3668 O.co2     1 ACP        -0.8730
      8 C3B        -5.5459   -4.5996    3.6058 C.3       1 ACP        -0.5822
      9 PA         -1.7115   -6.2792    2.8242 P.3       1 ACP         1.7803
     10 O1A        -1.8458   -7.6732    2.2841 O.2       1 ACP        -0.8736
     11 O2A        -0.8668   -6.1749    4.2002 O.3       1 ACP        -0.7984
     12 O3A        -3.1098   -5.5537    3.1841 O.3       1 ACP        -0.7763
     13 O5'        -0.9731   -5.2420    1.8247 O.3       1 ACP        -0.5927
     14 C5'        -0.7840   -3.8935    2.2172 C.3       1 ACP         0.1349
     15 C4'        -0.0724   -3.1466    1.1027 C.3       1 ACP         0.1151
     16 O4'        -0.8674   -3.1929   -0.0945 O.3       1 ACP        -0.3857
     17 C3'         0.1338   -1.6715    1.4027 C.3       1 ACP         0.0978
     18 O3'         1.2893   -1.4445    2.1808 O.3       1 ACP        -0.5800
     19 C2'         0.2158   -1.0724    0.0128 C.3       1 ACP         0.0885
     20 O2'         1.5141   -1.2448   -0.5513 O.3       1 ACP        -0.5877
     21 C1'        -0.7897   -1.9176   -0.7583 C.3       1 ACP         0.3822
     22 N9         -2.1040   -1.3333   -0.7704 N.pl3     1 ACP        -0.4391
     23 C8         -3.2124   -1.5345    0.2719 C.ar      1 ACP         0.1869
     24 N7         -4.2964   -0.8234   -0.0828 N.2       1 ACP        -0.2730
     25 C5         -3.8754   -0.2386   -1.2478 C.ar      1 ACP        -0.1385
     26 C6         -4.7432    0.6719   -2.0470 C.ar      1 ACP         0.4818
     27 N6         -5.9725    0.9415   -1.6366 N.pl3     1 ACP        -0.8277
     28 N1         -4.1703    1.1517   -3.1536 N.pl3     1 ACP        -0.6982
     29 C2         -2.8174    0.7994   -3.5215 C.ar      1 ACP         0.6213
     30 N3         -2.0475    0.0097   -2.8393 N.ar      1 ACP        -0.5099
     31 C4         -2.6278   -0.4836   -1.7071 C.ar      1 ACP         0.2813
     32 HOG3       -5.5913   -2.7234    6.6515 H         1 ACP         0.4118
     33 H3B1       -5.5544   -4.4059    2.5284 H         1 ACP         0.0929
     34 H3B2       -6.5621   -4.9015    3.8839 H         1 ACP         0.0929
     35 HOA2       -1.1859   -6.6609    4.9903 H         1 ACP         0.4544
     36 H5'1       -1.7611   -3.4415    2.4168 H         1 ACP         0.0887
     37 H5'2       -0.1867   -3.8711    3.1345 H         1 ACP         0.0887
     38 H4'         0.8883   -3.6448    0.8784 H         1 ACP         0.1198
     39 H3'        -0.7368   -1.2358    1.9871 H         1 ACP         0.0796
     40 HO3'        1.3407   -0.4871    2.3218 H         1 ACP         0.4356
     41 H2'        -0.0343   -0.0280    0.0196 H         1 ACP         0.0714
     42 HO2'        2.1443   -0.7955    0.0378 H         1 ACP         0.4430
     43 H1'        -0.5175   -2.1046   -1.7826 H         1 ACP         0.1194
     44 H8         -3.2310   -2.1319    1.1889 H         1 ACP         0.2736
     45 HN61       -6.3230    0.5316   -0.7829 H         1 ACP         0.4770
     46 HN62       -6.5628    1.5584   -2.1760 H         1 ACP         0.4770
     47 H2         -2.4822    1.2710   -4.4579 H         1 ACP         0.0919
     48 H48        -4.7200    1.7780   -3.7346 H         1 ACP         0.4736
@<TRIPOS>BOND
     1    1    2 2
     2    1    3 1
     3    1    4 1
     4    1    8 1
     5    4   32 1
     6    5    6 2
     7    5    7 1
     8    5    8 1
     9    5   12 1
    10    8   33 1
    11    8   34 1
    12    9   10 2
    13    9   11 1
    14    9   12 1
    15    9   13 1
    16   11   35 1
    17   13   14 1
    18   14   15 1
    19   14   36 1
    20   14   37 1
    21   15   16 1
    22   15   17 1
    23   15   38 1
    24   16   21 1
    25   17   18 1
    26   17   19 1
    27   17   39 1
    28   18   40 1
    29   19   20 1
    30   19   21 1
    31   19   41 1
    32   20   42 1
    33   21   22 1
    34   21   43 1
    35   22   23 ar
    36   22   31 ar
    37   23   24 ar
    38   23   44 1
    39   24   25 ar
    40   25   26 ar
    41   25   31 ar
    42   26   27 1
    43   26   28 ar
    44   27   45 1
    45   27   46 1
    46   28   29 ar
    47   28   48 1
    48   29   30 ar
    49   29   47 1
    50   30   31 ar
@<TRIPOS>SUBSTRUCTURE
     1 ACP         1 GROUP 0 A     ****
@<TRIPOS>MOLECULE
[[5-(6-amino-1,8-dihydropurine-6,8-diylium-7-id-9-yl)-3,4-dihydroxy-tetrahydrofuran-2-yl]methoxy-hydroxy-phosphoryl]oxy-[[hydroxy(oxido)phosphoryl]methyl]phosphinate
   48    50     1     0     0
SMALL
USER_CHARGES

@<TRIPOS>ATOM
      1 PG         -0.4332   -2.1026   -7.0465 P.3       1 ACP         1.3752
      2 O1G        -1.5842   -3.0795   -6.9853 O.co2     1 ACP        -0.8816
      3 O2G         1.0073   -2.5590   -7.0775 O.co2     1 ACP        -0.8816
      4 O3G        -0.6892   -1.0411   -8.2581 O.3       1 ACP        -0.7903
      5 PB          0.5713    0.4437   -5.2893 P.3       1 ACP         1.5257
      6 O1B         0.0784    1.1583   -4.0520 O.co2     1 ACP        -0.8730
      7 O2B         0.8017    1.1711   -6.5940 O.co2     1 ACP        -0.8730
      8 C3B        -0.6111   -0.9347   -5.6271 C.3       1 ACP        -0.5822
      9 PA          3.3382   -0.0303   -4.3156 P.3       1 ACP         1.7803
     10 O1A         4.1259    0.9215   -5.1679 O.2       1 ACP        -0.8736
     11 O2A         4.0564   -1.4597   -4.0726 O.3       1 ACP        -0.7984
     12 O3A         1.8897   -0.4321   -4.9085 O.3       1 ACP        -0.7763
     13 O5'         3.0189    0.5129   -2.8246 O.3       1 ACP        -0.5927
     14 C5'         2.2816   -0.2918   -1.9206 C.3       1 ACP         0.1349
     15 C4'         2.7248    0.0226   -0.4980 C.3       1 ACP         0.1151
     16 O4'         2.4697    1.4219   -0.2462 O.3       1 ACP        -0.3857
     17 C3'         1.9404   -0.7419    0.5596 C.3       1 ACP         0.0978
     18 O3'         2.7418   -0.8086    1.7389 O.3       1 ACP        -0.5800
     19 C2'         0.7477    0.1630    0.7858 C.3       1 ACP         0.0885
     20 O2'         0.1373   -0.0577    2.0407 O.3       1 ACP        -0.5877
     21 C1'         1.3733    1.5427    0.6747 C.3       1 ACP         0.3822
     22 N9          0.4520    2.5240    0.1767 N.pl3     1 ACP        -0.4391
     23 C8         -1.0660    2.5608    0.3999 C.ar      1 ACP         0.1869
     24 N7         -1.5852    3.6333   -0.2221 N.2       1 ACP        -0.2730
     25 C5         -0.4682    4.1996   -0.7771 C.ar      1 ACP        -0.1385
     26 C6         -0.5216    5.4476   -1.5899 C.ar      1 ACP         0.4818
     27 N6         -1.6813    6.0510   -1.7982 N.pl3     1 ACP        -0.8277
     28 N1          0.6621    5.8575   -2.0523 N.pl3     1 ACP        -0.6982
     29 C2          1.8795    5.1301   -1.7717 C.ar      1 ACP         0.6213
     30 N3          1.9458    4.0434   -1.0670 N.ar      1 ACP        -0.5099
     31 C4          0.7388    3.6199   -0.5917 C.ar      1 ACP         0.2813
     32 HOG3       -0.7752   -1.3865   -9.1721 H         1 ACP         0.4118
     33 H3B1       -0.6471   -1.5519   -4.7237 H         1 ACP         0.0929
     34 H3B2       -1.5963   -0.4665   -5.7333 H         1 ACP         0.0929
     35 HOA2        4.9322   -1.4812   -3.6315 H         1 ACP         0.4544
     36 H5'1        1.2148   -0.0787   -2.0445 H         1 ACP         0.0887
     37 H5'2        2.4640   -1.3460   -2.1537 H         1 ACP         0.0887
     38 H4'         3.8046   -0.1390   -0.4012 H         1 ACP         0.1198
     39 H3'         1.6786   -1.7628    0.2719 H         1 ACP         0.0796
     40 HO3'        2.2231   -1.2979    2.3952 H         1 ACP         0.4356
     41 H2'         0.0002   -0.0084   -0.0014 H         1 ACP         0.0714
     42 HO2'       -0.1554   -0.9852    2.0577 H         1 ACP         0.4430
     43 H1'         1.7718    1.9211    1.6015 H         1 ACP         0.1194
     44 H8         -1.7235    1.8833    0.9537 H         1 ACP         0.2736
     45 HN61       -2.5296    5.6672   -1.4072 H         1 ACP         0.4770
     46 HN62       -1.7205    6.8969   -2.3483 H         1 ACP         0.4770
     47 H2          2.7750    5.5878   -2.2190 H         1 ACP         0.0919
     48 H48         0.6808    6.7046   -2.6128 H         1 ACP         0.4736
@<TRIPOS>BOND
     1    1    2 2
     2    1    3 1
     3    1    4 1
     4    1    8 1
     5    4   32 1
     6    5    6 2
     7    5    7 1
     8    5    8 1
     9    5   12 1
    10    8   33 1
    11    8   34 1
    12    9   10 2
    13    9   11 1
    14    9   12 1
    15    9   13 1
    16   11   35 1
    17   13   14 1
    18   14   15 1
    19   14   36 1
    20   14   37 1
    21   15   16 1
    22   15   17 1
    23   15   38 1
    24   16   21 1
    25   17   18 1
    26   17   19 1
    27   17   39 1
    28   18   40 1
    29   19   20 1
    30   19   21 1
    31   19   41 1
    32   20   42 1
    33   21   22 1
    34   21   43 1
    35   22   23 ar
    36   22   31 ar
    37   23   24 ar
    38   23   44 1
    39   24   25 ar
    40   25   26 ar
    41   25   31 ar
    42   26   27 1
    43   26   28 ar
    44   27   45 1
    45   27   46 1
    46   28   29 ar
    47   28   48 1
    48   29   30 ar
    49   29   47 1
    50   30   31 ar
@<TRIPOS>SUBSTRUCTURE
     1 ACP         1 GROUP 0 A     ****
@<TRIPOS>MOLECULE
[[5-(6-amino-1,8-dihydropurine-6,8-diylium-7-id-9-yl)-3,4-dihydroxy-tetrahydrofuran-2-yl]methoxy-hydroxy-phosphoryl]oxy-[[hydroxy(oxido)phosphoryl]methyl]phosphinate
   48    50     1     0     0
SMALL
USER_CHARGES

@<TRIPOS>ATOM
      1 PG         -1.4325   -1.7425   -4.8492 P.3       1 ACP         1.3752
      2 O1G        -2.8643   -1.3078   -5.0584 O.co2     1 ACP        -0.8816
      3 O2G        -0.7227   -1.5611   -3.5272 O.co2     1 ACP        -0.8816
      4 O3G        -1.2577   -3.2854   -5.3483 O.3       1 ACP        -0.7903
      5 PB          1.4249   -1.1583   -6.2893 P.3       1 ACP         1.5257
      6 O1B         1.8873   -0.3277   -7.4644 O.co2     1 ACP        -0.8730
      7 O2B         1.6990   -2.6421   -6.2023 O.co2     1 ACP        -0.8730
      8 C3B        -0.4017   -0.9250   -6.1451 C.3       1 ACP        -0.5822
      9 PA          3.3382   -0.0303   -4.3156 P.3       1 ACP         1.7803
     10 O1A         4.1259    0.9215   -5.1679 O.2       1 ACP        -0.8736
     11 O2A         4.0564   -1.4597   -4.0726 O.3       1 ACP        -0.7984
     12 O3A         1.8897   -0.4321   -4.9085 O.3       1 ACP        -0.7763
     13 O5'         3.0189    0.5129   -2.8246 O.3       1 ACP        -0.5927
     14 C5'         2.2816   -0.2918   -1.9206 C.3       1 ACP         0.1349
     15 C4'         2.7248    0.0226   -0.4980 C.3       1 ACP         0.1151
     16 O4'         2.4697    1.4219   -0.2462 O.3       1 ACP        -0.3857
     17 C3'         1.9404   -0.7419    0.5596 C.3       1 ACP         0.0978
     18 O3'         2.7418   -0.8086    1.7389 O.3       1 ACP        -0.5800
     19 C2'         0.7477    0.1630    0.7858 C.3       1 ACP         0.0885
     20 O2'         0.1373   -0.0577    2.0407 O.3       1 ACP        -0.5877
     21 C1'         1.3733    1.5427    0.6747 C.3       1 ACP         0.3822
     22 N9          0.4520    2.5240    0.1767 N.pl3     1 ACP        -0.4391
     23 C8         -0.4598    3.4379    1.0068 C.ar      1 ACP         0.1869
     24 N7         -1.1770    4.2228    0.1845 N.2       1 ACP        -0.2730
     25 C5         -0.7330    3.8149   -1.0455 C.ar      1 ACP        -0.1385
     26 C6         -1.2413    4.4029   -2.3169 C.ar      1 ACP         0.4818
     27 N6         -2.1578    5.3575   -2.2832 N.pl3     1 ACP        -0.8277
     28 N1         -0.6977    3.8860   -3.4216 N.pl3     1 ACP        -0.6982
     29 C2          0.3002    2.8419   -3.3591 C.ar      1 ACP         0.6213
     30 N3          0.7548    2.3183   -2.2631 N.ar      1 ACP        -0.5099
     31 C4          0.2027    2.8430   -1.1309 C.ar      1 ACP         0.2813
     32 HOG3       -1.7977   -3.9809   -4.9159 H         1 ACP         0.4118
     33 H3B1       -0.5784    0.1507   -6.0452 H         1 ACP         0.0929
     34 H3B2       -0.8208   -1.2290   -7.1111 H         1 ACP         0.0929
     35 HOA2        4.2687   -2.0215   -4.8481 H         1 ACP         0.4544
     36 H5'1        1.2148   -0.0787   -2.0445 H         1 ACP         0.0887
     37 H5'2        2.4640   -1.3460   -2.1537 H         1 ACP         0.0887
     38 H4'         3.8046   -0.1390   -0.4012 H         1 ACP         0.1198
     39 H3'         1.6786   -1.7628    0.2719 H         1 ACP         0.0796
     40 HO3'        2.2231   -1.2979    2.3952 H         1 ACP         0.4356
     41 H2'         0.0002   -0.0084   -0.0014 H         1 ACP         0.0714
     42 HO2'       -0.6132    0.5577    2.1063 H         1 ACP         0.4430
     43 H1'         1.7718    1.9211    1.6015 H         1 ACP         0.1194
     44 H8         -0.5892    3.5248    2.0902 H         1 ACP         0.2736
     45 HN61       -2.5128    5.6880   -1.3974 H         1 ACP         0.4770
     46 HN62       -2.5040    5.7581   -3.1431 H         1 ACP         0.4770
     47 H2          0.6550    2.5166   -4.3490 H         1 ACP         0.0919
     48 H48        -1.0101    4.2527   -4.3160 H         1 ACP         0.4736
@<TRIPOS>BOND
     1    1    2 2
     2    1    3 1
     3    1    4 1
     4    1    8 1
     5    4   32 1
     6    5    6 2
     7    5    7 1
     8    5    8 1
     9    5   12 1
    10    8   33 1
    11    8   34 1
    12    9   10 2
    13    9   11 1
    14    9   12 1
    15    9   13 1
    16   11   35 1
    17   13   14 1
    18   14   15 1
    19   14   36 1
    20   14   37 1
    21   15   16 1
    22   15   17 1
    23   15   38 1
    24   16   21 1
    25   17   18 1
    26   17   19 1
    27   17   39 1
    28   18   40 1
    29   19   20 1
    30   19   21 1
    31   19   41 1
    32   20   42 1
    33   21   22 1
    34   21   43 1
    35   22   23 ar
    36   22   31 ar
    37   23   24 ar
    38   23   44 1
    39   24   25 ar
    40   25   26 ar
    41   25   31 ar
    42   26   27 1
    43   26   28 ar
    44   27   45 1
    45   27   46 1
    46   28   29 ar
    47   28   48 1
    48   29   30 ar
    49   29   47 1
    50   30   31 ar
@<TRIPOS>SUBSTRUCTURE
     1 ACP         1 GROUP 0 A     ****
@<TRIPOS>MOLECULE
[[5-(6-amino-1,8-dihydropurine-6,8-diylium-7-id-9-yl)-3,4-dihydroxy-tetrahydrofuran-2-yl]methoxy-hydroxy-phosphoryl]oxy-[[hydroxy(oxido)phosphoryl]methyl]phosphinate
   48    50     1     0     0
SMALL
USER_CHARGES

@<TRIPOS>ATOM
      1 PG          2.6406    1.7235   -6.5446 P.3       1 ACP         1.3752
      2 O1G         3.4436    2.9560   -6.8894 O.co2     1 ACP        -0.8816
      3 O2G         1.8527    1.6113   -5.2597 O.co2     1 ACP        -0.8816
      4 O3G         1.6785    1.3357   -7.8033 O.3       1 ACP        -0.7903
      5 PB          3.2420   -1.4618   -6.2746 P.3       1 ACP         1.5257
      6 O1B         4.4568   -2.3451   -6.4430 O.co2     1 ACP        -0.8730
      7 O2B         1.9654   -1.7026   -7.0471 O.co2     1 ACP        -0.8730
      8 C3B         3.7787    0.2712   -6.6220 C.3       1 ACP        -0.5822
      9 PA          2.1465   -2.2810   -3.6369 P.3       1 ACP         1.7803
     10 O1A         2.4544   -3.7423   -3.7867 O.2       1 ACP        -0.8736
     11 O2A         0.5859   -1.9037   -3.8366 O.3       1 ACP        -0.7984
     12 O3A         2.9051   -1.3168   -4.6885 O.3       1 ACP        -0.7763
     13 O5'         2.5233   -1.6621   -2.1894 O.3       1 ACP        -0.5927
     14 C5'         2.2816   -0.2918   -1.9206 C.3       1 ACP         0.1349
     15 C4'         2.7248    0.0226   -0.4980 C.3       1 ACP         0.1151
     16 O4'         2.4697    1.4219   -0.2462 O.3       1 ACP        -0.3857
     17 C3'         1.9404   -0.7419    0.5596 C.3       1 ACP         0.0978
     18 O3'         2.7418   -0.8086    1.7389 O.3       1 ACP        -0.5800
     19 C2'         0.7477    0.1630    0.7858 C.3       1 ACP         0.0885
     20 O2'         0.1373   -0.0577    2.0407 O.3       1 ACP        -0.5877
     21 C1'         1.3733    1.5427    0.6747 C.3       1 ACP         0.3822
     22 N9          0.4520    2.5240    0.1767 N.pl3     1 ACP        -0.4391
     23 C8         -0.3054    2.4845   -1.1576 C.ar      1 ACP         0.1869
     24 N7         -1.0755    3.5806   -1.2691 N.2       1 ACP        -0.2730
     25 C5         -0.8043    4.2306   -0.0942 C.ar      1 ACP        -0.1385
     26 C6         -1.4324    5.5335    0.2646 C.ar      1 ACP         0.4818
     27 N6         -2.2885    6.1055   -0.5675 N.pl3     1 ACP        -0.8277
     28 N1         -1.0537    6.0229    1.4479 N.pl3     1 ACP        -0.6982
     29 C2         -0.1096    5.3242    2.2908 C.ar      1 ACP         0.6213
     30 N3          0.4468    4.1904    1.9960 N.ar      1 ACP        -0.5099
     31 C4          0.0631    3.6855    0.7877 C.ar      1 ACP         0.2813
     32 HOG3        1.0150    1.9924   -8.1045 H         1 ACP         0.4118
     33 H3B1        4.6052    0.4916   -5.9388 H         1 ACP         0.0929
     34 H3B2        4.1965    0.2592   -7.6351 H         1 ACP         0.0929
     35 HOA2        0.3104   -0.9660   -3.7530 H         1 ACP         0.4544
     36 H5'1        2.8428    0.3151   -2.6386 H         1 ACP         0.0887
     37 H5'2        1.2124   -0.0895   -2.0416 H         1 ACP         0.0887
     38 H4'         3.8046   -0.1390   -0.4012 H         1 ACP         0.1198
     39 H3'         1.6786   -1.7628    0.2719 H         1 ACP         0.0796
     40 HO3'        3.5553   -1.2733    1.4913 H         1 ACP         0.4356
     41 H2'         0.0002   -0.0084   -0.0014 H         1 ACP         0.0714
     42 HO2'       -0.1554   -0.9852    2.0577 H         1 ACP         0.4430
     43 H1'         1.7718    1.9211    1.6015 H         1 ACP         0.1194
     44 H8         -0.2991    1.7413   -1.9611 H         1 ACP         0.2736
     45 HN61       -2.5167    5.6603   -1.4447 H         1 ACP         0.4770
     46 HN62       -2.7159    6.9882   -0.3270 H         1 ACP         0.4770
     47 H2          0.1059    5.8491    3.2340 H         1 ACP         0.0919
     48 H48        -1.4532    6.9099    1.7401 H         1 ACP         0.4736
@<TRIPOS>BOND
     1    1    2 2
     2    1    3 1
     3    1    4 1
     4    1    8 1
     5    4   32 1
     6    5    6 2
     7    5    7 1
     8    5    8 1
     9    5   12 1
    10    8   33 1
    11    8   34 1
    12    9   10 2
    13    9   11 1
    14    9   12 1
    15    9   13 1
    16   11   35 1
    17   13   14 1
    18   14   15 1
    19   14   36 1
    20   14   37 1
    21   15   16 1
    22   15   17 1
    23   15   38 1
    24   16   21 1
    25   17   18 1
    26   17   19 1
    27   17   39 1
    28   18   40 1
    29   19   20 1
    30   19   21 1
    31   19   41 1
    32   20   42 1
    33   21   22 1
    34   21   43 1
    35   22   23 ar
    36   22   31 ar
    37   23   24 ar
    38   23   44 1
    39   24   25 ar
    40   25   26 ar
    41   25   31 ar
    42   26   27 1
    43   26   28 ar
    44   27   45 1
    45   27   46 1
    46   28   29 ar
    47   28   48 1
    48   29   30 ar
    49   29   47 1
    50   30   31 ar
@<TRIPOS>SUBSTRUCTURE
     1 ACP         1 GROUP 0 A     ****
@<TRIPOS>MOLECULE
[[5-(6-amino-1,8-dihydropurine-6,8-diylium-7-id-9-yl)-3,4-dihydroxy-tetrahydrofuran-2-yl]methoxy-hydroxy-phosphoryl]oxy-[[hydroxy(oxido)phosphoryl]methyl]phosphinate
   48    50     1     0     0
SMALL
USER_CHARGES

@<TRIPOS>ATOM
      1 PG         -6.5267   -5.0848    1.5481 P.3       1 ACP         1.3752
      2 O1G        -7.4492   -3.9198    1.2750 O.co2     1 ACP        -0.8816
      3 O2G        -5.9771   -5.3684    2.9272 O.co2     1 ACP        -0.8816
      4 O3G        -7.1823   -6.4479    0.9376 O.3       1 ACP        -0.7903
      5 PB         -3.6906   -6.1516    0.3656 P.3       1 ACP         1.5257
      6 O1B        -2.7270   -5.6863   -0.7019 O.co2     1 ACP        -0.8730
      7 O2B        -4.2924   -7.5380    0.3496 O.co2     1 ACP        -0.8730
      8 C3B        -5.0877   -4.9438    0.3994 C.3       1 ACP        -0.5822
      9 PA         -1.6907   -6.3398    2.5550 P.3       1 ACP         1.7803
     10 O1A        -1.3372   -7.7795    2.3207 O.2       1 ACP        -0.8736
     11 O2A        -1.9309   -5.9557    4.1083 O.3       1 ACP        -0.7984
     12 O3A        -3.0489   -5.8483    1.8306 O.3       1 ACP        -0.7763
     13 O5'        -0.5703   -5.2848    2.0532 O.3       1 ACP        -0.5927
     14 C5'        -0.7840   -3.8935    2.2172 C.3       1 ACP         0.1349
     15 C4'        -0.0724   -3.1466    1.1027 C.3       1 ACP         0.1151
     16 O4'        -0.8674   -3.1929   -0.0945 O.3       1 ACP        -0.3857
     17 C3'         0.1338   -1.6715    1.4027 C.3       1 ACP         0.0978
     18 O3'         1.2893   -1.4445    2.1808 O.3       1 ACP        -0.5800
     19 C2'         0.2158   -1.0724    0.0128 C.3       1 ACP         0.0885
     20 O2'         1.5141   -1.2448   -0.5513 O.3       1 ACP        -0.5877
     21 C1'        -0.7897   -1.9176   -0.7583 C.3       1 ACP         0.3822
     22 N9         -2.1040   -1.3333   -0.7704 N.pl3     1 ACP        -0.4391
     23 C8         -3.2124   -1.5345    0.2719 C.ar      1 ACP         0.1869
     24 N7         -4.2964   -0.8234   -0.0828 N.2       1 ACP        -0.2730
     25 C5         -3.8754   -0.2386   -1.2478 C.ar      1 ACP        -0.1385
     26 C6         -4.7432    0.6719   -2.0470 C.ar      1 ACP         0.4818
     27 N6         -5.9725    0.9415   -1.6366 N.pl3     1 ACP        -0.8277
     28 N1         -4.1703    1.1517   -3.1536 N.pl3     1 ACP        -0.6982
     29 C2         -2.8174    0.7994   -3.5215 C.ar      1 ACP         0.6213
     30 N3         -2.0475    0.0097   -2.8393 N.ar      1 ACP        -0.5099
     31 C4         -2.6278   -0.4836   -1.7071 C.ar      1 ACP         0.2813
     32 HOG3       -8.0580   -6.7362    1.2724 H         1 ACP         0.4118
     33 H3B1       -4.6502   -3.9557    0.5746 H         1 ACP         0.0929
     34 H3B2       -5.5016   -4.9343   -0.6153 H         1 ACP         0.0929
     35 HOA2       -2.6407   -6.4148    4.6058 H         1 ACP         0.4544
     36 H5'1       -1.8600   -3.6934    2.1849 H         1 ACP         0.0887
     37 H5'2       -0.3935   -3.5869    3.1930 H         1 ACP         0.0887
     38 H4'         0.8883   -3.6448    0.8784 H         1 ACP         0.1198
     39 H3'        -0.7368   -1.2358    1.9871 H         1 ACP         0.0796
     40 HO3'        2.0373   -1.7816    1.6651 H         1 ACP         0.4356
     41 H2'        -0.0343   -0.0280    0.0196 H         1 ACP         0.0714
     42 HO2'        1.4978   -0.8409   -1.4361 H         1 ACP         0.4430
     43 H1'        -0.5175   -2.1046   -1.7826 H         1 ACP         0.1194
     44 H8         -3.2310   -2.1319    1.1889 H         1 ACP         0.2736
     45 HN61       -6.3230    0.5316   -0.7829 H         1 ACP         0.4770
     46 HN62       -6.5628    1.5584   -2.1760 H         1 ACP         0.4770
     47 H2         -2.4822    1.2710   -4.4579 H         1 ACP         0.0919
     48 H48        -4.7200    1.7780   -3.7346 H         1 ACP         0.4736
@<TRIPOS>BOND
     1    1    2 2
     2    1    3 1
     3    1    4 1
     4    1    8 1
     5    4   32 1
     6    5    6 2
     7    5    7 1
     8    5    8 1
     9    5   12 1
    10    8   33 1
    11    8   34 1
    12    9   10 2
    13    9   11 1
    14    9   12 1
    15    9   13 1
    16   11   35 1
    17   13   14 1
    18   14   15 1
    19   14   36 1
    20   14   37 1
    21   15   16 1
    22   15   17 1
    23   15   38 1
    24   16   21 1
    25   17   18 1
    26   17   19 1
    27   17   39 1
    28   18   40 1
    29   19   20 1
    30   19   21 1
    31   19   41 1
    32   20   42 1
    33   21   22 1
    34   21   43 1
    35   22   23 ar
    36   22   31 ar
    37   23   24 ar
    38   23   44 1
    39   24   25 ar
    40   25   26 ar
    41   25   31 ar
    42   26   27 1
    43   26   28 ar
    44   27   45 1
    45   27   46 1
    46   28   29 ar
    47   28   48 1
    48   29   30 ar
    49   29   47 1
    50   30   31 ar
@<TRIPOS>SUBSTRUCTURE
     1 ACP         1 GROUP 0 A     ****
@<TRIPOS>MOLECULE
[[5-(6-amino-1,8-dihydropurine-6,8-diylium-7-id-9-yl)-3,4-dihydroxy-tetrahydrofuran-2-yl]methoxy-hydroxy-phosphoryl]oxy-[[hydroxy(oxido)phosphoryl]methyl]phosphinate
   48    50     1     0     0
SMALL
USER_CHARGES

@<TRIPOS>ATOM
      1 PG         -3.8565   -7.5904    3.3867 P.3       1 ACP         1.3752
      2 O1G        -3.9312   -9.0643    3.0630 O.co2     1 ACP        -0.8816
      3 O2G        -3.2055   -6.5949    2.4542 O.co2     1 ACP        -0.8816
      4 O3G        -5.3395   -7.0521    3.8007 O.3       1 ACP        -0.7903
      5 PB         -2.7290   -5.7892    5.8494 P.3       1 ACP         1.5257
      6 O1B        -2.0505   -6.0760    7.1692 O.co2     1 ACP        -0.8730
      7 O2B        -4.0090   -4.9898    5.7659 O.co2     1 ACP        -0.8730
      8 C3B        -3.0409   -7.4173    5.0344 C.3       1 ACP        -0.5822
      9 PA         -0.6986   -3.8658    4.8463 P.3       1 ACP         1.7803
     10 O1A         0.2569   -3.8045    6.0022 O.2       1 ACP        -0.8736
     11 O2A        -1.7609   -2.6466    4.7931 O.3       1 ACP        -0.7984
     12 O3A        -1.6339   -5.1829    4.8086 O.3       1 ACP        -0.7763
     13 O5'         0.0088   -3.8408    3.3906 O.3       1 ACP        -0.5927
     14 C5'        -0.7840   -3.8935    2.2172 C.3       1 ACP         0.1349
     15 C4'        -0.0724   -3.1466    1.1027 C.3       1 ACP         0.1151
     16 O4'        -0.8674   -3.1929   -0.0945 O.3       1 ACP        -0.3857
     17 C3'         0.1338   -1.6715    1.4027 C.3       1 ACP         0.0978
     18 O3'         1.2893   -1.4445    2.1808 O.3       1 ACP        -0.5800
     19 C2'         0.2158   -1.0724    0.0128 C.3       1 ACP         0.0885
     20 O2'         1.5141   -1.2448   -0.5513 O.3       1 ACP        -0.5877
     21 C1'        -0.7897   -1.9176   -0.7583 C.3       1 ACP         0.3822
     22 N9         -2.1040   -1.3333   -0.7704 N.pl3     1 ACP        -0.4391
     23 C8         -3.2124   -1.5345    0.2719 C.ar      1 ACP         0.1869
     24 N7         -4.2964   -0.8234   -0.0828 N.2       1 ACP        -0.2730
     25 C5         -3.8754   -0.2386   -1.2478 C.ar      1 ACP        -0.1385
     26 C6         -4.7432    0.6719   -2.0470 C.ar      1 ACP         0.4818
     27 N6         -5.9725    0.9415   -1.6366 N.pl3     1 ACP        -0.8277
     28 N1         -4.1703    1.1517   -3.1536 N.pl3     1 ACP        -0.6982
     29 C2         -2.8174    0.7994   -3.5215 C.ar      1 ACP         0.6213
     30 N3         -2.0475    0.0097   -2.8393 N.ar      1 ACP        -0.5099
     31 C4         -2.6278   -0.4836   -1.7071 C.ar      1 ACP         0.2813
     32 HOG3       -6.0650   -7.1295    3.1450 H         1 ACP         0.4118
     33 H3B1       -2.0735   -7.9232    4.9533 H         1 ACP         0.0929
     34 H3B2       -3.6457   -7.9964    5.7414 H         1 ACP         0.0929
     35 HOA2       -1.4249   -1.7279    4.7205 H         1 ACP         0.4544
     36 H5'1       -0.9363   -4.9413    1.9384 H         1 ACP         0.0887
     37 H5'2       -1.7563   -3.4348    2.4247 H         1 ACP         0.0887
     38 H4'         0.8883   -3.6448    0.8784 H         1 ACP         0.1198
     39 H3'        -0.7368   -1.2358    1.9871 H         1 ACP         0.0796
     40 HO3'        1.1625   -1.9325    3.0084 H         1 ACP         0.4356
     41 H2'        -0.0343   -0.0280    0.0196 H         1 ACP         0.0714
     42 HO2'        2.1443   -0.7955    0.0378 H         1 ACP         0.4430
     43 H1'        -0.5175   -2.1046   -1.7826 H         1 ACP         0.1194
     44 H8         -3.2310   -2.1319    1.1889 H         1 ACP         0.2736
     45 HN61       -6.3230    0.5316   -0.7829 H         1 ACP         0.4770
     46 HN62       -6.5628    1.5584   -2.1760 H         1 ACP         0.4770
     47 H2         -2.4822    1.2710   -4.4579 H         1 ACP         0.0919
     48 H48        -4.7200    1.7780   -3.7346 H         1 ACP         0.4736
@<TRIPOS>BOND
     1    1    2 2
     2    1    3 1
     3    1    4 1
     4    1    8 1
     5    4   32 1
     6    5    6 2
     7    5    7 1
     8    5    8 1
     9    5   12 1
    10    8   33 1
    11    8   34 1
    12    9   10 2
    13    9   11 1
    14    9   12 1
    15    9   13 1
    16   11   35 1
    17   13   14 1
    18   14   15 1
    19   14   36 1
    20   14   37 1
    21   15   16 1
    22   15   17 1
    23   15   38 1
    24   16   21 1
    25   17   18 1
    26   17   19 1
    27   17   39 1
    28   18   40 1
    29   19   20 1
    30   19   21 1
    31   19   41 1
    32   20   42 1
    33   21   22 1
    34   21   43 1
    35   22   23 ar
    36   22   31 ar
    37   23   24 ar
    38   23   44 1
    39   24   25 ar
    40   25   26 ar
    41   25   31 ar
    42   26   27 1
    43   26   28 ar
    44   27   45 1
    45   27   46 1
    46   28   29 ar
    47   28   48 1
    48   29   30 ar
    49   29   47 1
    50   30   31 ar
@<TRIPOS>SUBSTRUCTURE
     1 ACP         1 GROUP 0 A     ****
@<TRIPOS>MOLECULE
[[5-(6-amino-1,8-dihydropurine-6,8-diylium-7-id-9-yl)-3,4-dihydroxy-tetrahydrofuran-2-yl]methoxy-hydroxy-phosphoryl]oxy-[[hydroxy(oxido)phosphoryl]methyl]phosphinate
   48    50     1     0     0
SMALL
USER_CHARGES

@<TRIPOS>ATOM
      1 PG         -0.8685   -2.6729   -4.5497 P.3       1 ACP         1.3752
      2 O1G        -2.3787   -2.6700   -4.5054 O.co2     1 ACP        -0.8816
      3 O2G        -0.0282   -2.3879   -3.3262 O.co2     1 ACP        -0.8816
      4 O3G        -0.3510   -4.0520   -5.2504 O.3       1 ACP        -0.7903
      5 PB          1.4249   -1.1583   -6.2893 P.3       1 ACP         1.5257
      6 O1B         1.4307   -0.1422   -7.4083 O.co2     1 ACP        -0.8730
      7 O2B         2.1175   -2.4953   -6.4204 O.co2     1 ACP        -0.8730
      8 C3B        -0.3423   -1.4910   -5.8675 C.3       1 ACP        -0.5822
      9 PA          3.3382   -0.0303   -4.3156 P.3       1 ACP         1.7803
     10 O1A         4.1259    0.9215   -5.1679 O.2       1 ACP        -0.8736
     11 O2A         4.0564   -1.4597   -4.0726 O.3       1 ACP        -0.7984
     12 O3A         1.8897   -0.4321   -4.9085 O.3       1 ACP        -0.7763
     13 O5'         3.0189    0.5129   -2.8246 O.3       1 ACP        -0.5927
     14 C5'         2.2816   -0.2918   -1.9206 C.3       1 ACP         0.1349
     15 C4'         2.7248    0.0226   -0.4980 C.3       1 ACP         0.1151
     16 O4'         2.4697    1.4219   -0.2462 O.3       1 ACP        -0.3857
     17 C3'         1.9404   -0.7419    0.5596 C.3       1 ACP         0.0978
     18 O3'         2.7418   -0.8086    1.7389 O.3       1 ACP        -0.5800
     19 C2'         0.7477    0.1630    0.7858 C.3       1 ACP         0.0885
     20 O2'         0.1373   -0.0577    2.0407 O.3       1 ACP        -0.5877
     21 C1'         1.3733    1.5427    0.6747 C.3       1 ACP         0.3822
     22 N9          0.4520    2.5240    0.1767 N.pl3     1 ACP        -0.4391
     23 C8         -1.0660    2.5608    0.3999 C.ar      1 ACP         0.1869
     24 N7         -1.5852    3.6333   -0.2221 N.2       1 ACP        -0.2730
     25 C5         -0.4682    4.1996   -0.7771 C.ar      1 ACP        -0.1385
     26 C6         -0.5216    5.4476   -1.5899 C.ar      1 ACP         0.4818
     27 N6         -1.6813    6.0510   -1.7982 N.pl3     1 ACP        -0.8277
     28 N1          0.6621    5.8575   -2.0523 N.pl3     1 ACP        -0.6982
     29 C2          1.8795    5.1301   -1.7717 C.ar      1 ACP         0.6213
     30 N3          1.9458    4.0434   -1.0670 N.ar      1 ACP        -0.5099
     31 C4          0.7388    3.6199   -0.5917 C.ar      1 ACP         0.2813
     32 HOG3       -0.5924   -4.9070   -4.8345 H         1 ACP         0.4118
     33 H3B1       -0.7964   -0.5274   -5.6152 H         1 ACP         0.0929
     34 H3B2       -0.8139   -1.8328   -6.7958 H         1 ACP         0.0929
     35 HOA2        4.2687   -2.0215   -4.8481 H         1 ACP         0.4544
     36 H5'1        1.2148   -0.0787   -2.0445 H         1 ACP         0.0887
     37 H5'2        2.4640   -1.3460   -2.1537 H         1 ACP         0.0887
     38 H4'         3.8046   -0.1390   -0.4012 H         1 ACP         0.1198
     39 H3'         1.6786   -1.7628    0.2719 H         1 ACP         0.0796
     40 HO3'        3.5553   -1.2733    1.4913 H         1 ACP         0.4356
     41 H2'         0.0002   -0.0084   -0.0014 H         1 ACP         0.0714
     42 HO2'       -0.1554   -0.9852    2.0577 H         1 ACP         0.4430
     43 H1'         1.7718    1.9211    1.6015 H         1 ACP         0.1194
     44 H8         -1.7235    1.8833    0.9537 H         1 ACP         0.2736
     45 HN61       -2.5296    5.6672   -1.4072 H         1 ACP         0.4770
     46 HN62       -1.7205    6.8969   -2.3483 H         1 ACP         0.4770
     47 H2          2.7750    5.5878   -2.2190 H         1 ACP         0.0919
     48 H48         0.6808    6.7046   -2.6128 H         1 ACP         0.4736
@<TRIPOS>BOND
     1    1    2 2
     2    1    3 1
     3    1    4 1
     4    1    8 1
     5    4   32 1
     6    5    6 2
     7    5    7 1
     8    5    8 1
     9    5   12 1
    10    8   33 1
    11    8   34 1
    12    9   10 2
    13    9   11 1
    14    9   12 1
    15    9   13 1
    16   11   35 1
    17   13   14 1
    18   14   15 1
    19   14   36 1
    20   14   37 1
    21   15   16 1
    22   15   17 1
    23   15   38 1
    24   16   21 1
    25   17   18 1
    26   17   19 1
    27   17   39 1
    28   18   40 1
    29   19   20 1
    30   19   21 1
    31   19   41 1
    32   20   42 1
    33   21   22 1
    34   21   43 1
    35   22   23 ar
    36   22   31 ar
    37   23   24 ar
    38   23   44 1
    39   24   25 ar
    40   25   26 ar
    41   25   31 ar
    42   26   27 1
    43   26   28 ar
    44   27   45 1
    45   27   46 1
    46   28   29 ar
    47   28   48 1
    48   29   30 ar
    49   29   47 1
    50   30   31 ar
@<TRIPOS>SUBSTRUCTURE
     1 ACP         1 GROUP 0 A     ****
@<TRIPOS>MOLECULE
[[5-(6-amino-1,8-dihydropurine-6,8-diylium-7-id-9-yl)-3,4-dihydroxy-tetrahydrofuran-2-yl]methoxy-hydroxy-phosphoryl]oxy-[[hydroxy(oxido)phosphoryl]methyl]phosphinate
   48    50     1     0     0
SMALL
USER_CHARGES

@<TRIPOS>ATOM
      1 PG          5.3226    3.2341   -2.8287 P.3       1 ACP         1.3752
      2 O1G         5.9858    4.2174   -1.8928 O.co2     1 ACP        -0.8816
      3 O2G         3.9765    2.6180   -2.5246 O.co2     1 ACP        -0.8816
      4 O3G         5.3045    3.8525   -4.3379 O.3       1 ACP        -0.7903
      5 PB          6.1356    0.4029   -4.2085 P.3       1 ACP         1.5257
      6 O1B         7.3506   -0.4957   -4.1843 O.co2     1 ACP        -0.8730
      7 O2B         5.5665    0.9430   -5.5004 O.co2     1 ACP        -0.8730
      8 C3B         6.5089    1.8497   -3.1225 C.3       1 ACP        -0.5822
      9 PA          3.8848   -1.4552   -3.6518 P.3       1 ACP         1.7803
     10 O1A         4.4951   -2.7819   -3.9988 O.2       1 ACP        -0.8736
     11 O2A         2.9632   -0.8186   -4.8193 O.3       1 ACP        -0.7984
     12 O3A         4.9489   -0.2826   -3.3298 O.3       1 ACP        -0.7763
     13 O5'         2.9194   -1.4813   -2.3528 O.3       1 ACP        -0.5927
     14 C5'         2.2816   -0.2918   -1.9206 C.3       1 ACP         0.1349
     15 C4'         2.7248    0.0226   -0.4980 C.3       1 ACP         0.1151
     16 O4'         2.4697    1.4219   -0.2462 O.3       1 ACP        -0.3857
     17 C3'         1.9404   -0.7419    0.5596 C.3       1 ACP         0.0978
     18 O3'         2.7418   -0.8086    1.7389 O.3       1 ACP        -0.5800
     19 C2'         0.7477    0.1630    0.7858 C.3       1 ACP         0.0885
     20 O2'         0.1373   -0.0577    2.0407 O.3       1 ACP        -0.5877
     21 C1'         1.3733    1.5427    0.6747 C.3       1 ACP         0.3822
     22 N9          0.4520    2.5240    0.1767 N.pl3     1 ACP        -0.4391
     23 C8         -0.3054    2.4845   -1.1576 C.ar      1 ACP         0.1869
     24 N7         -1.0755    3.5806   -1.2691 N.2       1 ACP        -0.2730
     25 C5         -0.8043    4.2306   -0.0942 C.ar      1 ACP        -0.1385
     26 C6         -1.4324    5.5335    0.2646 C.ar      1 ACP         0.4818
     27 N6         -2.2885    6.1055   -0.5675 N.pl3     1 ACP        -0.8277
     28 N1         -1.0537    6.0229    1.4479 N.pl3     1 ACP        -0.6982
     29 C2         -0.1096    5.3242    2.2908 C.ar      1 ACP         0.6213
     30 N3          0.4468    4.1904    1.9960 N.ar      1 ACP        -0.5099
     31 C4          0.0631    3.6855    0.7877 C.ar      1 ACP         0.2813
     32 HOG3        4.8357    4.7006   -4.4902 H         1 ACP         0.4118
     33 H3B1        6.7649    1.4497   -2.1361 H         1 ACP         0.0929
     34 H3B2        7.4197    2.3037   -3.5291 H         1 ACP         0.0929
     35 HOA2        2.1790   -1.3192   -5.1302 H         1 ACP         0.4544
     36 H5'1        2.5576    0.5245   -2.5961 H         1 ACP         0.0887
     37 H5'2        1.1970   -0.4360   -1.9602 H         1 ACP         0.0887
     38 H4'         3.8046   -0.1390   -0.4012 H         1 ACP         0.1198
     39 H3'         1.6786   -1.7628    0.2719 H         1 ACP         0.0796
     40 HO3'        3.5553   -1.2733    1.4913 H         1 ACP         0.4356
     41 H2'         0.0002   -0.0084   -0.0014 H         1 ACP         0.0714
     42 HO2'       -0.1554   -0.9852    2.0577 H         1 ACP         0.4430
     43 H1'         1.7718    1.9211    1.6015 H         1 ACP         0.1194
     44 H8         -0.2991    1.7413   -1.9611 H         1 ACP         0.2736
     45 HN61       -2.5167    5.6603   -1.4447 H         1 ACP         0.4770
     46 HN62       -2.7159    6.9882   -0.3270 H         1 ACP         0.4770
     47 H2          0.1059    5.8491    3.2340 H         1 ACP         0.0919
     48 H48        -1.4532    6.9099    1.7401 H         1 ACP         0.4736
@<TRIPOS>BOND
     1    1    2 2
     2    1    3 1
     3    1    4 1
     4    1    8 1
     5    4   32 1
     6    5    6 2
     7    5    7 1
     8    5    8 1
     9    5   12 1
    10    8   33 1
    11    8   34 1
    12    9   10 2
    13    9   11 1
    14    9   12 1
    15    9   13 1
    16   11   35 1
    17   13   14 1
    18   14   15 1
    19   14   36 1
    20   14   37 1
    21   15   16 1
    22   15   17 1
    23   15   38 1
    24   16   21 1
    25   17   18 1
    26   17   19 1
    27   17   39 1
    28   18   40 1
    29   19   20 1
    30   19   21 1
    31   19   41 1
    32   20   42 1
    33   21   22 1
    34   21   43 1
    35   22   23 ar
    36   22   31 ar
    37   23   24 ar
    38   23   44 1
    39   24   25 ar
    40   25   26 ar
    41   25   31 ar
    42   26   27 1
    43   26   28 ar
    44   27   45 1
    45   27   46 1
    46   28   29 ar
    47   28   48 1
    48   29   30 ar
    49   29   47 1
    50   30   31 ar
@<TRIPOS>SUBSTRUCTURE
     1 ACP         1 GROUP 0 A     ****
@<TRIPOS>MOLECULE
[[5-(6-amino-1,8-dihydropurine-6,8-diylium-7-id-9-yl)-3,4-dihydroxy-tetrahydrofuran-2-yl]methoxy-hydroxy-phosphoryl]oxy-[[hydroxy(oxido)phosphoryl]methyl]phosphinate
   48    50     1     0     0
SMALL
USER_CHARGES

@<TRIPOS>ATOM
      1 PG          3.5553    0.2364   -7.8386 P.3       1 ACP         1.3752
      2 O1G         3.5935    1.6027   -8.4824 O.co2     1 ACP        -0.8816
      3 O2G         2.2711   -0.5466   -7.6906 O.co2     1 ACP        -0.8816
      4 O3G         4.6915   -0.7144   -8.5210 O.3       1 ACP        -0.7903
      5 PB          4.4798   -1.0358   -4.9912 P.3       1 ACP         1.5257
      6 O1B         5.1367   -0.5041   -3.7382 O.co2     1 ACP        -0.8730
      7 O2B         5.0633   -2.1919   -5.7706 O.co2     1 ACP        -0.8730
      8 C3B         4.3070    0.3854   -6.1584 C.3       1 ACP        -0.5822
      9 PA          2.1465   -2.2810   -3.6369 P.3       1 ACP         1.7803
     10 O1A         2.4544   -3.7423   -3.7867 O.2       1 ACP        -0.8736
     11 O2A         0.5859   -1.9037   -3.8366 O.3       1 ACP        -0.7984
     12 O3A         2.9051   -1.3168   -4.6885 O.3       1 ACP        -0.7763
     13 O5'         2.5233   -1.6621   -2.1894 O.3       1 ACP        -0.5927
     14 C5'         2.2816   -0.2918   -1.9206 C.3       1 ACP         0.1349
     15 C4'         2.7248    0.0226   -0.4980 C.3       1 ACP         0.1151
     16 O4'         2.4697    1.4219   -0.2462 O.3       1 ACP        -0.3857
     17 C3'         1.9404   -0.7419    0.5596 C.3       1 ACP         0.0978
     18 O3'         2.7418   -0.8086    1.7389 O.3       1 ACP        -0.5800
     19 C2'         0.7477    0.1630    0.7858 C.3       1 ACP         0.0885
     20 O2'         0.1373   -0.0577    2.0407 O.3       1 ACP        -0.5877
     21 C1'         1.3733    1.5427    0.6747 C.3       1 ACP         0.3822
     22 N9          0.4520    2.5240    0.1767 N.pl3     1 ACP        -0.4391
     23 C8         -1.0660    2.5608    0.3999 C.ar      1 ACP         0.1869
     24 N7         -1.5852    3.6333   -0.2221 N.2       1 ACP        -0.2730
     25 C5         -0.4682    4.1996   -0.7771 C.ar      1 ACP        -0.1385
     26 C6         -0.5216    5.4476   -1.5899 C.ar      1 ACP         0.4818
     27 N6         -1.6813    6.0510   -1.7982 N.pl3     1 ACP        -0.8277
     28 N1          0.6621    5.8575   -2.0523 N.pl3     1 ACP        -0.6982
     29 C2          1.8795    5.1301   -1.7717 C.ar      1 ACP         0.6213
     30 N3          1.9458    4.0434   -1.0670 N.ar      1 ACP        -0.5099
     31 C4          0.7388    3.6199   -0.5917 C.ar      1 ACP         0.2813
     32 HOG3        4.6382   -0.8886   -9.4848 H         1 ACP         0.4118
     33 H3B1        3.7378    1.1601   -5.6346 H         1 ACP         0.0929
     34 H3B2        5.3195    0.7780   -6.3061 H         1 ACP         0.0929
     35 HOA2       -0.0794   -2.3059   -3.2384 H         1 ACP         0.4544
     36 H5'1        2.8428    0.3151   -2.6386 H         1 ACP         0.0887
     37 H5'2        1.2124   -0.0895   -2.0416 H         1 ACP         0.0887
     38 H4'         3.8046   -0.1390   -0.4012 H         1 ACP         0.1198
     39 H3'         1.6786   -1.7628    0.2719 H         1 ACP         0.0796
     40 HO3'        2.2231   -1.2979    2.3952 H         1 ACP         0.4356
     41 H2'         0.0002   -0.0084   -0.0014 H         1 ACP         0.0714
     42 HO2'       -0.1554   -0.9852    2.0577 H         1 ACP         0.4430
     43 H1'         1.7718    1.9211    1.6015 H         1 ACP         0.1194
     44 H8         -1.7235    1.8833    0.9537 H         1 ACP         0.2736
     45 HN61       -2.5296    5.6672   -1.4072 H         1 ACP         0.4770
     46 HN62       -1.7205    6.8969   -2.3483 H         1 ACP         0.4770
     47 H2          2.7750    5.5878   -2.2190 H         1 ACP         0.0919
     48 H48         0.6808    6.7046   -2.6128 H         1 ACP         0.4736
@<TRIPOS>BOND
     1    1    2 2
     2    1    3 1
     3    1    4 1
     4    1    8 1
     5    4   32 1
     6    5    6 2
     7    5    7 1
     8    5    8 1
     9    5   12 1
    10    8   33 1
    11    8   34 1
    12    9   10 2
    13    9   11 1
    14    9   12 1
    15    9   13 1
    16   11   35 1
    17   13   14 1
    18   14   15 1
    19   14   36 1
    20   14   37 1
    21   15   16 1
    22   15   17 1
    23   15   38 1
    24   16   21 1
    25   17   18 1
    26   17   19 1
    27   17   39 1
    28   18   40 1
    29   19   20 1
    30   19   21 1
    31   19   41 1
    32   20   42 1
    33   21   22 1
    34   21   43 1
    35   22   23 ar
    36   22   31 ar
    37   23   24 ar
    38   23   44 1
    39   24   25 ar
    40   25   26 ar
    41   25   31 ar
    42   26   27 1
    43   26   28 ar
    44   27   45 1
    45   27   46 1
    46   28   29 ar
    47   28   48 1
    48   29   30 ar
    49   29   47 1
    50   30   31 ar
@<TRIPOS>SUBSTRUCTURE
     1 ACP         1 GROUP 0 A     ****
@<TRIPOS>MOLECULE
[[5-(6-amino-1,8-dihydropurine-6,8-diylium-7-id-9-yl)-3,4-dihydroxy-tetrahydrofuran-2-yl]methoxy-hydroxy-phosphoryl]oxy-[[hydroxy(oxido)phosphoryl]methyl]phosphinate
   48    50     1     0     0
SMALL
USER_CHARGES

@<TRIPOS>ATOM
      1 PG          4.1386    1.7586   -6.0222 P.3       1 ACP         1.3752
      2 O1G         5.4386    2.4365   -6.3869 O.co2     1 ACP        -0.8816
      3 O2G         3.5945    1.7697   -4.6122 O.co2     1 ACP        -0.8816
      4 O3G         2.9707    2.2381   -7.0550 O.3       1 ACP        -0.7903
      5 PB          2.8969   -1.2336   -6.3143 P.3       1 ACP         1.5257
      6 O1B         3.3821   -2.5491   -6.8789 O.co2     1 ACP        -0.8730
      7 O2B         1.6151   -0.5859   -6.7854 O.co2     1 ACP        -0.8730
      8 C3B         4.2561   -0.0060   -6.5539 C.3       1 ACP        -0.5822
      9 PA          2.1465   -2.2810   -3.6369 P.3       1 ACP         1.7803
     10 O1A         2.4544   -3.7423   -3.7867 O.2       1 ACP        -0.8736
     11 O2A         0.5859   -1.9037   -3.8366 O.3       1 ACP        -0.7984
     12 O3A         2.9051   -1.3168   -4.6885 O.3       1 ACP        -0.7763
     13 O5'         2.5233   -1.6621   -2.1894 O.3       1 ACP        -0.5927
     14 C5'         2.2816   -0.2918   -1.9206 C.3       1 ACP         0.1349
     15 C4'         2.7248    0.0226   -0.4980 C.3       1 ACP         0.1151
     16 O4'         2.4697    1.4219   -0.2462 O.3       1 ACP        -0.3857
     17 C3'         1.9404   -0.7419    0.5596 C.3       1 ACP         0.0978
     18 O3'         2.7418   -0.8086    1.7389 O.3       1 ACP        -0.5800
     19 C2'         0.7477    0.1630    0.7858 C.3       1 ACP         0.0885
     20 O2'         0.1373   -0.0577    2.0407 O.3       1 ACP        -0.5877
     21 C1'         1.3733    1.5427    0.6747 C.3       1 ACP         0.3822
     22 N9          0.4520    2.5240    0.1767 N.pl3     1 ACP        -0.4391
     23 C8         -0.4598    3.4379    1.0068 C.ar      1 ACP         0.1869
     24 N7         -1.1770    4.2228    0.1845 N.2       1 ACP        -0.2730
     25 C5         -0.7330    3.8149   -1.0455 C.ar      1 ACP        -0.1385
     26 C6         -1.2413    4.4029   -2.3169 C.ar      1 ACP         0.4818
     27 N6         -2.1578    5.3575   -2.2832 N.pl3     1 ACP        -0.8277
     28 N1         -0.6977    3.8860   -3.4216 N.pl3     1 ACP        -0.6982
     29 C2          0.3002    2.8419   -3.3591 C.ar      1 ACP         0.6213
     30 N3          0.7548    2.3183   -2.2631 N.ar      1 ACP        -0.5099
     31 C4          0.2027    2.8430   -1.1309 C.ar      1 ACP         0.2813
     32 HOG3        2.7520    3.1931   -7.1029 H         1 ACP         0.4118
     33 H3B1        5.1454   -0.4159   -6.0645 H         1 ACP         0.0929
     34 H3B2        4.4621    0.0083   -7.6302 H         1 ACP         0.0929
     35 HOA2        0.1548   -2.1075   -4.6938 H         1 ACP         0.4544
     36 H5'1        2.8428    0.3151   -2.6386 H         1 ACP         0.0887
     37 H5'2        1.2124   -0.0895   -2.0416 H         1 ACP         0.0887
     38 H4'         3.8046   -0.1390   -0.4012 H         1 ACP         0.1198
     39 H3'         1.6786   -1.7628    0.2719 H         1 ACP         0.0796
     40 HO3'        2.2231   -1.2979    2.3952 H         1 ACP         0.4356
     41 H2'         0.0002   -0.0084   -0.0014 H         1 ACP         0.0714
     42 HO2'       -0.6132    0.5577    2.1063 H         1 ACP         0.4430
     43 H1'         1.7718    1.9211    1.6015 H         1 ACP         0.1194
     44 H8         -0.5892    3.5248    2.0902 H         1 ACP         0.2736
     45 HN61       -2.5128    5.6880   -1.3974 H         1 ACP         0.4770
     46 HN62       -2.5040    5.7581   -3.1431 H         1 ACP         0.4770
     47 H2          0.6550    2.5166   -4.3490 H         1 ACP         0.0919
     48 H48        -1.0101    4.2527   -4.3160 H         1 ACP         0.4736
@<TRIPOS>BOND
     1    1    2 2
     2    1    3 1
     3    1    4 1
     4    1    8 1
     5    4   32 1
     6    5    6 2
     7    5    7 1
     8    5    8 1
     9    5   12 1
    10    8   33 1
    11    8   34 1
    12    9   10 2
    13    9   11 1
    14    9   12 1
    15    9   13 1
    16   11   35 1
    17   13   14 1
    18   14   15 1
    19   14   36 1
    20   14   37 1
    21   15   16 1
    22   15   17 1
    23   15   38 1
    24   16   21 1
    25   17   18 1
    26   17   19 1
    27   17   39 1
    28   18   40 1
    29   19   20 1
    30   19   21 1
    31   19   41 1
    32   20   42 1
    33   21   22 1
    34   21   43 1
    35   22   23 ar
    36   22   31 ar
    37   23   24 ar
    38   23   44 1
    39   24   25 ar
    40   25   26 ar
    41   25   31 ar
    42   26   27 1
    43   26   28 ar
    44   27   45 1
    45   27   46 1
    46   28   29 ar
    47   28   48 1
    48   29   30 ar
    49   29   47 1
    50   30   31 ar
@<TRIPOS>SUBSTRUCTURE
     1 ACP         1 GROUP 0 A     ****
@<TRIPOS>MOLECULE
[[5-(6-amino-1,8-dihydropurine-6,8-diylium-7-id-9-yl)-3,4-dihydroxy-tetrahydrofuran-2-yl]methoxy-hydroxy-phosphoryl]oxy-[[hydroxy(oxido)phosphoryl]methyl]phosphinate
   48    50     1     0     0
SMALL
USER_CHARGES

@<TRIPOS>ATOM
      1 PG         -2.3044   -9.3202    4.4893 P.3       1 ACP         1.3752
      2 O1G        -3.2234  -10.2326    3.7110 O.co2     1 ACP        -0.8816
      3 O2G        -2.8316   -8.2466    5.4132 O.co2     1 ACP        -0.8816
      4 O3G        -1.1961  -10.2174    5.2813 O.3       1 ACP        -0.7903
      5 PB          0.1354   -7.2915    3.7735 P.3       1 ACP         1.5257
      6 O1B         0.8372   -6.8578    2.5071 O.co2     1 ACP        -0.8730
      7 O2B         0.8883   -7.8883    4.9403 O.co2     1 ACP        -0.8730
      8 C3B        -1.1712   -8.5015    3.2827 C.3       1 ACP        -0.5822
      9 PA         -0.5057   -4.5585    4.7472 P.3       1 ACP         1.7803
     10 O1A         0.4299   -4.4257    5.9133 O.2       1 ACP        -0.8736
     11 O2A        -1.9760   -3.9305    4.9961 O.3       1 ACP        -0.7984
     12 O3A        -0.8164   -6.0788    4.2965 O.3       1 ACP        -0.7763
     13 O5'         0.0088   -3.8408    3.3906 O.3       1 ACP        -0.5927
     14 C5'        -0.7840   -3.8935    2.2172 C.3       1 ACP         0.1349
     15 C4'        -0.0724   -3.1466    1.1027 C.3       1 ACP         0.1151
     16 O4'        -0.8674   -3.1929   -0.0945 O.3       1 ACP        -0.3857
     17 C3'         0.1338   -1.6715    1.4027 C.3       1 ACP         0.0978
     18 O3'         1.2893   -1.4445    2.1808 O.3       1 ACP        -0.5800
     19 C2'         0.2158   -1.0724    0.0128 C.3       1 ACP         0.0885
     20 O2'         1.5141   -1.2448   -0.5513 O.3       1 ACP        -0.5877
     21 C1'        -0.7897   -1.9176   -0.7583 C.3       1 ACP         0.3822
     22 N9         -2.1040   -1.3333   -0.7704 N.pl3     1 ACP        -0.4391
     23 C8         -3.2124   -1.5345    0.2719 C.ar      1 ACP         0.1869
     24 N7         -4.2964   -0.8234   -0.0828 N.2       1 ACP        -0.2730
     25 C5         -3.8754   -0.2386   -1.2478 C.ar      1 ACP        -0.1385
     26 C6         -4.7432    0.6719   -2.0470 C.ar      1 ACP         0.4818
     27 N6         -5.9725    0.9415   -1.6366 N.pl3     1 ACP        -0.8277
     28 N1         -4.1703    1.1517   -3.1536 N.pl3     1 ACP        -0.6982
     29 C2         -2.8174    0.7994   -3.5215 C.ar      1 ACP         0.6213
     30 N3         -2.0475    0.0097   -2.8393 N.ar      1 ACP        -0.5099
     31 C4         -2.6278   -0.4836   -1.7071 C.ar      1 ACP         0.2813
     32 HOG3       -1.5097  -10.8770    5.9361 H         1 ACP         0.4118
     33 H3B1       -1.8121   -7.9988    2.5513 H         1 ACP         0.0929
     34 H3B2       -0.6510   -9.3066    2.7514 H         1 ACP         0.0929
     35 HOA2       -2.0545   -2.9747    5.2020 H         1 ACP         0.4544
     36 H5'1       -0.9363   -4.9413    1.9384 H         1 ACP         0.0887
     37 H5'2       -1.7563   -3.4348    2.4247 H         1 ACP         0.0887
     38 H4'         0.8883   -3.6448    0.8784 H         1 ACP         0.1198
     39 H3'        -0.7368   -1.2358    1.9871 H         1 ACP         0.0796
     40 HO3'        1.3407   -0.4871    2.3218 H         1 ACP         0.4356
     41 H2'        -0.0343   -0.0280    0.0196 H         1 ACP         0.0714
     42 HO2'        2.1443   -0.7955    0.0378 H         1 ACP         0.4430
     43 H1'        -0.5175   -2.1046   -1.7826 H         1 ACP         0.1194
     44 H8         -3.2310   -2.1319    1.1889 H         1 ACP         0.2736
     45 HN61       -6.3230    0.5316   -0.7829 H         1 ACP         0.4770
     46 HN62       -6.5628    1.5584   -2.1760 H         1 ACP         0.4770
     47 H2         -2.4822    1.2710   -4.4579 H         1 ACP         0.0919
     48 H48        -4.7200    1.7780   -3.7346 H         1 ACP         0.4736
@<TRIPOS>BOND
     1    1    2 2
     2    1    3 1
     3    1    4 1
     4    1    8 1
     5    4   32 1
     6    5    6 2
     7    5    7 1
     8    5    8 1
     9    5   12 1
    10    8   33 1
    11    8   34 1
    12    9   10 2
    13    9   11 1
    14    9   12 1
    15    9   13 1
    16   11   35 1
    17   13   14 1
    18   14   15 1
    19   14   36 1
    20   14   37 1
    21   15   16 1
    22   15   17 1
    23   15   38 1
    24   16   21 1
    25   17   18 1
    26   17   19 1
    27   17   39 1
    28   18   40 1
    29   19   20 1
    30   19   21 1
    31   19   41 1
    32   20   42 1
    33   21   22 1
    34   21   43 1
    35   22   23 ar
    36   22   31 ar
    37   23   24 ar
    38   23   44 1
    39   24   25 ar
    40   25   26 ar
    41   25   31 ar
    42   26   27 1
    43   26   28 ar
    44   27   45 1
    45   27   46 1
    46   28   29 ar
    47   28   48 1
    48   29   30 ar
    49   29   47 1
    50   30   31 ar
@<TRIPOS>SUBSTRUCTURE
     1 ACP         1 GROUP 0 A     ****
@<TRIPOS>MOLECULE
[[5-(6-amino-1,8-dihydropurine-6,8-diylium-7-id-9-yl)-3,4-dihydroxy-tetrahydrofuran-2-yl]methoxy-hydroxy-phosphoryl]oxy-[[hydroxy(oxido)phosphoryl]methyl]phosphinate
   48    50     1     0     0
SMALL
USER_CHARGES

@<TRIPOS>ATOM
      1 PG         -2.9651   -3.4254    6.4038 P.3       1 ACP         1.3752
      2 O1G        -4.1113   -2.5303    6.8135 O.co2     1 ACP        -0.8816
      3 O2G        -2.0059   -3.0476    5.2987 O.co2     1 ACP        -0.8816
      4 O3G        -2.1182   -3.8593    7.7286 O.3       1 ACP        -0.7903
      5 PB         -2.6389   -6.5099    5.4240 P.3       1 ACP         1.5257
      6 O1B        -3.5807   -7.6673    5.1833 O.co2     1 ACP        -0.8730
      7 O2B        -1.4647   -6.6182    6.3695 O.co2     1 ACP        -0.8730
      8 C3B        -3.6672   -5.0806    5.9826 C.3       1 ACP        -0.5822
      9 PA         -1.0079   -6.4123    2.9424 P.3       1 ACP         1.7803
     10 O1A        -1.2148   -7.7925    2.3901 O.2       1 ACP        -0.8736
     11 O2A         0.3745   -6.2212    3.7611 O.3       1 ACP        -0.7984
     12 O3A        -2.1372   -5.9247    3.9902 O.3       1 ACP        -0.7763
     13 O5'        -0.9731   -5.2420    1.8247 O.3       1 ACP        -0.5927
     14 C5'        -0.7840   -3.8935    2.2172 C.3       1 ACP         0.1349
     15 C4'        -0.0724   -3.1466    1.1027 C.3       1 ACP         0.1151
     16 O4'        -0.8674   -3.1929   -0.0945 O.3       1 ACP        -0.3857
     17 C3'         0.1338   -1.6715    1.4027 C.3       1 ACP         0.0978
     18 O3'         1.2893   -1.4445    2.1808 O.3       1 ACP        -0.5800
     19 C2'         0.2158   -1.0724    0.0128 C.3       1 ACP         0.0885
     20 O2'         1.5141   -1.2448   -0.5513 O.3       1 ACP        -0.5877
     21 C1'        -0.7897   -1.9176   -0.7583 C.3       1 ACP         0.3822
     22 N9         -2.1040   -1.3333   -0.7704 N.pl3     1 ACP        -0.4391
     23 C8         -3.2124   -1.5345    0.2719 C.ar      1 ACP         0.1869
     24 N7         -4.2964   -0.8234   -0.0828 N.2       1 ACP        -0.2730
     25 C5         -3.8754   -0.2386   -1.2478 C.ar      1 ACP        -0.1385
     26 C6         -4.7432    0.6719   -2.0470 C.ar      1 ACP         0.4818
     27 N6         -5.9725    0.9415   -1.6366 N.pl3     1 ACP        -0.8277
     28 N1         -4.1703    1.1517   -3.1536 N.pl3     1 ACP        -0.6982
     29 C2         -2.8174    0.7994   -3.5215 C.ar      1 ACP         0.6213
     30 N3         -2.0475    0.0097   -2.8393 N.ar      1 ACP        -0.5099
     31 C4         -2.6278   -0.4836   -1.7071 C.ar      1 ACP         0.2813
     32 HOG3       -1.7055   -3.1543    8.2715 H         1 ACP         0.4118
     33 H3B1       -4.4194   -4.9070    5.2065 H         1 ACP         0.0929
     34 H3B2       -4.2025   -5.4257    6.8745 H         1 ACP         0.0929
     35 HOA2        1.2252   -6.3760    3.2979 H         1 ACP         0.4544
     36 H5'1       -1.7611   -3.4415    2.4168 H         1 ACP         0.0887
     37 H5'2       -0.1867   -3.8711    3.1345 H         1 ACP         0.0887
     38 H4'         0.8883   -3.6448    0.8784 H         1 ACP         0.1198
     39 H3'        -0.7368   -1.2358    1.9871 H         1 ACP         0.0796
     40 HO3'        1.3407   -0.4871    2.3218 H         1 ACP         0.4356
     41 H2'        -0.0343   -0.0280    0.0196 H         1 ACP         0.0714
     42 HO2'        2.1443   -0.7955    0.0378 H         1 ACP         0.4430
     43 H1'        -0.5175   -2.1046   -1.7826 H         1 ACP         0.1194
     44 H8         -3.2310   -2.1319    1.1889 H         1 ACP         0.2736
     45 HN61       -6.3230    0.5316   -0.7829 H         1 ACP         0.4770
     46 HN62       -6.5628    1.5584   -2.1760 H         1 ACP         0.4770
     47 H2         -2.4822    1.2710   -4.4579 H         1 ACP         0.0919
     48 H48        -4.7200    1.7780   -3.7346 H         1 ACP         0.4736
@<TRIPOS>BOND
     1    1    2 2
     2    1    3 1
     3    1    4 1
     4    1    8 1
     5    4   32 1
     6    5    6 2
     7    5    7 1
     8    5    8 1
     9    5   12 1
    10    8   33 1
    11    8   34 1
    12    9   10 2
    13    9   11 1
    14    9   12 1
    15    9   13 1
    16   11   35 1
    17   13   14 1
    18   14   15 1
    19   14   36 1
    20   14   37 1
    21   15   16 1
    22   15   17 1
    23   15   38 1
    24   16   21 1
    25   17   18 1
    26   17   19 1
    27   17   39 1
    28   18   40 1
    29   19   20 1
    30   19   21 1
    31   19   41 1
    32   20   42 1
    33   21   22 1
    34   21   43 1
    35   22   23 ar
    36   22   31 ar
    37   23   24 ar
    38   23   44 1
    39   24   25 ar
    40   25   26 ar
    41   25   31 ar
    42   26   27 1
    43   26   28 ar
    44   27   45 1
    45   27   46 1
    46   28   29 ar
    47   28   48 1
    48   29   30 ar
    49   29   47 1
    50   30   31 ar
@<TRIPOS>SUBSTRUCTURE
     1 ACP         1 GROUP 0 A     ****
@<TRIPOS>MOLECULE
[[5-(6-amino-1,8-dihydropurine-6,8-diylium-7-id-9-yl)-3,4-dihydroxy-tetrahydrofuran-2-yl]methoxy-hydroxy-phosphoryl]oxy-[[hydroxy(oxido)phosphoryl]methyl]phosphinate
   48    50     1     0     0
SMALL
USER_CHARGES

@<TRIPOS>ATOM
      1 PG          4.5020   -4.9233   -4.8301 P.3       1 ACP         1.3752
      2 O1G         3.8515   -6.2665   -4.5949 O.co2     1 ACP        -0.8816
      3 O2G         5.4404   -4.2977   -3.8241 O.co2     1 ACP        -0.8816
      4 O3G         5.2045   -4.9134   -6.3022 O.3       1 ACP        -0.7903
      5 PB          3.4756   -1.9137   -5.5151 P.3       1 ACP         1.5257
      6 O1B         2.1307   -1.2599   -5.7351 O.co2     1 ACP        -0.8730
      7 O2B         4.5775   -1.8422   -6.5471 O.co2     1 ACP        -0.8730
      8 C3B         3.1601   -3.7002   -5.1673 C.3       1 ACP        -0.5822
      9 PA          4.4222   -0.0245   -3.4263 P.3       1 ACP         1.7803
     10 O1A         5.0980    0.9267   -4.3703 O.2       1 ACP        -0.8736
     11 O2A         5.2971   -0.4013   -2.1184 O.3       1 ACP        -0.7984
     12 O3A         4.0545   -1.4640   -4.0615 O.3       1 ACP        -0.7763
     13 O5'         3.0189    0.5129   -2.8246 O.3       1 ACP        -0.5927
     14 C5'         2.2816   -0.2918   -1.9206 C.3       1 ACP         0.1349
     15 C4'         2.7248    0.0226   -0.4980 C.3       1 ACP         0.1151
     16 O4'         2.4697    1.4219   -0.2462 O.3       1 ACP        -0.3857
     17 C3'         1.9404   -0.7419    0.5596 C.3       1 ACP         0.0978
     18 O3'         2.7418   -0.8086    1.7389 O.3       1 ACP        -0.5800
     19 C2'         0.7477    0.1630    0.7858 C.3       1 ACP         0.0885
     20 O2'         0.1373   -0.0577    2.0407 O.3       1 ACP        -0.5877
     21 C1'         1.3733    1.5427    0.6747 C.3       1 ACP         0.3822
     22 N9          0.4520    2.5240    0.1767 N.pl3     1 ACP        -0.4391
     23 C8          0.1798    2.8712   -1.2933 C.ar      1 ACP         0.1869
     24 N7         -0.7494    3.8400   -1.3610 N.2       1 ACP        -0.2730
     25 C5         -1.0173    4.0603   -0.0358 C.ar      1 ACP        -0.1385
     26 C6         -2.0105    5.0717    0.4241 C.ar      1 ACP         0.4818
     27 N6         -2.6723    5.7982   -0.4628 N.pl3     1 ACP        -0.8277
     28 N1         -2.1445    5.1522    1.7502 N.pl3     1 ACP        -0.6982
     29 C2         -1.3755    4.3143    2.6427 C.ar      1 ACP         0.6213
     30 N3         -0.5075    3.4292    2.2616 N.ar      1 ACP        -0.5099
     31 C4         -0.3667    3.3425    0.9070 C.ar      1 ACP         0.2813
     32 HOG3        5.9086   -5.5704   -6.4887 H         1 ACP         0.4118
     33 H3B1        2.4826   -3.7425   -4.3084 H         1 ACP         0.0929
     34 H3B2        2.6042   -4.0811   -6.0315 H         1 ACP         0.0929
     35 HOA2        6.1695   -0.8331   -2.2399 H         1 ACP         0.4544
     36 H5'1        1.2148   -0.0787   -2.0445 H         1 ACP         0.0887
     37 H5'2        2.4640   -1.3460   -2.1537 H         1 ACP         0.0887
     38 H4'         3.8046   -0.1390   -0.4012 H         1 ACP         0.1198
     39 H3'         1.6786   -1.7628    0.2719 H         1 ACP         0.0796
     40 HO3'        2.2231   -1.2979    2.3952 H         1 ACP         0.4356
     41 H2'         0.0002   -0.0084   -0.0014 H         1 ACP         0.0714
     42 HO2'       -0.6132    0.5577    2.1063 H         1 ACP         0.4430
     43 H1'         1.7718    1.9211    1.6015 H         1 ACP         0.1194
     44 H8          0.6089    2.4651   -2.2147 H         1 ACP         0.2736
     45 HN61       -2.5055    5.6680   -1.4503 H         1 ACP         0.4770
     46 HN62       -3.3462    6.4841   -0.1542 H         1 ACP         0.4770
     47 H2         -1.5932    4.4937    3.7066 H         1 ACP         0.0919
     48 H48        -2.8098    5.8270    2.1160 H         1 ACP         0.4736
@<TRIPOS>BOND
     1    1    2 2
     2    1    3 1
     3    1    4 1
     4    1    8 1
     5    4   32 1
     6    5    6 2
     7    5    7 1
     8    5    8 1
     9    5   12 1
    10    8   33 1
    11    8   34 1
    12    9   10 2
    13    9   11 1
    14    9   12 1
    15    9   13 1
    16   11   35 1
    17   13   14 1
    18   14   15 1
    19   14   36 1
    20   14   37 1
    21   15   16 1
    22   15   17 1
    23   15   38 1
    24   16   21 1
    25   17   18 1
    26   17   19 1
    27   17   39 1
    28   18   40 1
    29   19   20 1
    30   19   21 1
    31   19   41 1
    32   20   42 1
    33   21   22 1
    34   21   43 1
    35   22   23 ar
    36   22   31 ar
    37   23   24 ar
    38   23   44 1
    39   24   25 ar
    40   25   26 ar
    41   25   31 ar
    42   26   27 1
    43   26   28 ar
    44   27   45 1
    45   27   46 1
    46   28   29 ar
    47   28   48 1
    48   29   30 ar
    49   29   47 1
    50   30   31 ar
@<TRIPOS>SUBSTRUCTURE
     1 ACP         1 GROUP 0 A     ****
@<TRIPOS>MOLECULE
[[5-(6-amino-1,8-dihydropurine-6,8-diylium-7-id-9-yl)-3,4-dihydroxy-tetrahydrofuran-2-yl]methoxy-hydroxy-phosphoryl]oxy-[[hydroxy(oxido)phosphoryl]methyl]phosphinate
   48    50     1     0     0
SMALL
USER_CHARGES

@<TRIPOS>ATOM
      1 PG          0.1932   -1.4619   -7.8573 P.3       1 ACP         1.3752
      2 O1G        -1.0880   -2.1389   -8.2853 O.co2     1 ACP        -0.8816
      3 O2G         1.4565   -2.2405   -7.5708 O.co2     1 ACP        -0.8816
      4 O3G         0.5317   -0.2446   -8.8888 O.3       1 ACP        -0.7903
      5 PB          1.0860    0.5670   -5.4769 P.3       1 ACP         1.5257
      6 O1B         0.3868    1.2391   -4.3176 O.co2     1 ACP        -0.8730
      7 O2B         1.8415    1.3566   -6.5210 O.co2     1 ACP        -0.8730
      8 C3B        -0.1802   -0.4467   -6.3606 C.3       1 ACP        -0.5822
      9 PA          3.4942   -0.6454   -4.2283 P.3       1 ACP         1.7803
     10 O1A         4.5922   -0.0921   -5.0891 O.2       1 ACP        -0.8736
     11 O2A         3.6977   -2.1921   -3.7990 O.3       1 ACP        -0.7984
     12 O3A         2.0281   -0.6323   -4.9073 O.3       1 ACP        -0.7763
     13 O5'         3.2872    0.1331   -2.8242 O.3       1 ACP        -0.5927
     14 C5'         2.2816   -0.2918   -1.9206 C.3       1 ACP         0.1349
     15 C4'         2.7248    0.0226   -0.4980 C.3       1 ACP         0.1151
     16 O4'         2.4697    1.4219   -0.2462 O.3       1 ACP        -0.3857
     17 C3'         1.9404   -0.7419    0.5596 C.3       1 ACP         0.0978
     18 O3'         2.7418   -0.8086    1.7389 O.3       1 ACP        -0.5800
     19 C2'         0.7477    0.1630    0.7858 C.3       1 ACP         0.0885
     20 O2'         0.1373   -0.0577    2.0407 O.3       1 ACP        -0.5877
     21 C1'         1.3733    1.5427    0.6747 C.3       1 ACP         0.3822
     22 N9          0.4520    2.5240    0.1767 N.pl3     1 ACP        -0.4391
     23 C8         -0.7463    2.2774   -0.7501 C.ar      1 ACP         0.1869
     24 N7         -1.3714    3.4419   -0.9948 N.2       1 ACP        -0.2730
     25 C5         -0.6104    4.3223   -0.2722 C.ar      1 ACP        -0.1385
     26 C6         -0.9062    5.7820   -0.2194 C.ar      1 ACP         0.4818
     27 N6         -1.9385    6.2713   -0.8881 N.pl3     1 ACP        -0.8277
     28 N1         -0.0613    6.4906    0.5336 N.pl3     1 ACP        -0.6982
     29 C2          1.0416    5.8662    1.2291 C.ar      1 ACP         0.6213
     30 N3          1.3146    4.5989    1.1954 N.ar      1 ACP        -0.5099
     31 C4          0.4541    3.8697    0.4273 C.ar      1 ACP         0.2813
     32 HOG3        0.6643   -0.4582   -9.8370 H         1 ACP         0.4118
     33 H3B1       -0.6102   -1.1324   -5.6235 H         1 ACP         0.0929
     34 H3B2       -0.9749    0.2503   -6.6499 H         1 ACP         0.0929
     35 HOA2        3.7589   -2.8747   -4.5007 H         1 ACP         0.4544
     36 H5'1        1.3493    0.2322   -2.1551 H         1 ACP         0.0887
     37 H5'2        2.1259   -1.3686   -2.0434 H         1 ACP         0.0887
     38 H4'         3.8046   -0.1390   -0.4012 H         1 ACP         0.1198
     39 H3'         1.6786   -1.7628    0.2719 H         1 ACP         0.0796
     40 HO3'        2.2231   -1.2979    2.3952 H         1 ACP         0.4356
     41 H2'         0.0002   -0.0084   -0.0014 H         1 ACP         0.0714
     42 HO2'       -0.6132    0.5577    2.1063 H         1 ACP         0.4430
     43 H1'         1.7718    1.9211    1.6015 H         1 ACP         0.1194
     44 H8         -1.1244    1.3534   -1.1987 H         1 ACP         0.2736
     45 HN61       -2.5259    5.6573   -1.4336 H         1 ACP         0.4770
     46 HN62       -2.1416    7.2600   -0.8539 H         1 ACP         0.4770
     47 H2          1.6509    6.5764    1.8088 H         1 ACP         0.0919
     48 H48        -0.2190    7.4917    0.6033 H         1 ACP         0.4736
@<TRIPOS>BOND
     1    1    2 2
     2    1    3 1
     3    1    4 1
     4    1    8 1
     5    4   32 1
     6    5    6 2
     7    5    7 1
     8    5    8 1
     9    5   12 1
    10    8   33 1
    11    8   34 1
    12    9   10 2
    13    9   11 1
    14    9   12 1
    15    9   13 1
    16   11   35 1
    17   13   14 1
    18   14   15 1
    19   14   36 1
    20   14   37 1
    21   15   16 1
    22   15   17 1
    23   15   38 1
    24   16   21 1
    25   17   18 1
    26   17   19 1
    27   17   39 1
    28   18   40 1
    29   19   20 1
    30   19   21 1
    31   19   41 1
    32   20   42 1
    33   21   22 1
    34   21   43 1
    35   22   23 ar
    36   22   31 ar
    37   23   24 ar
    38   23   44 1
    39   24   25 ar
    40   25   26 ar
    41   25   31 ar
    42   26   27 1
    43   26   28 ar
    44   27   45 1
    45   27   46 1
    46   28   29 ar
    47   28   48 1
    48   29   30 ar
    49   29   47 1
    50   30   31 ar
@<TRIPOS>SUBSTRUCTURE
     1 ACP         1 GROUP 0 A     ****
@<TRIPOS>MOLECULE
[[5-(6-amino-1,8-dihydropurine-6,8-diylium-7-id-9-yl)-3,4-dihydroxy-tetrahydrofuran-2-yl]methoxy-hydroxy-phosphoryl]oxy-[[hydroxy(oxido)phosphoryl]methyl]phosphinate
   48    50     1     0     0
SMALL
USER_CHARGES

@<TRIPOS>ATOM
      1 PG          2.1255   -4.4240   -4.5858 P.3       1 ACP         1.3752
      2 O1G         1.3845   -5.1579   -5.6790 O.co2     1 ACP        -0.8816
      3 O2G         1.4913   -3.2994   -3.8002 O.co2     1 ACP        -0.8816
      4 O3G         2.7734   -5.5063   -3.5516 O.3       1 ACP        -0.7903
      5 PB          4.9355   -2.8035   -4.3438 P.3       1 ACP         1.5257
      6 O1B         6.0651   -2.4622   -5.2882 O.co2     1 ACP        -0.8730
      7 O2B         5.1739   -3.5399   -3.0456 O.co2     1 ACP        -0.8730
      8 C3B         3.6955   -3.7743   -5.3092 C.3       1 ACP        -0.5822
      9 PA          4.4222   -0.0245   -3.4263 P.3       1 ACP         1.7803
     10 O1A         5.0980    0.9267   -4.3703 O.2       1 ACP        -0.8736
     11 O2A         5.2971   -0.4013   -2.1184 O.3       1 ACP        -0.7984
     12 O3A         4.0545   -1.4640   -4.0615 O.3       1 ACP        -0.7763
     13 O5'         3.0189    0.5129   -2.8246 O.3       1 ACP        -0.5927
     14 C5'         2.2816   -0.2918   -1.9206 C.3       1 ACP         0.1349
     15 C4'         2.7248    0.0226   -0.4980 C.3       1 ACP         0.1151
     16 O4'         2.4697    1.4219   -0.2462 O.3       1 ACP        -0.3857
     17 C3'         1.9404   -0.7419    0.5596 C.3       1 ACP         0.0978
     18 O3'         2.7418   -0.8086    1.7389 O.3       1 ACP        -0.5800
     19 C2'         0.7477    0.1630    0.7858 C.3       1 ACP         0.0885
     20 O2'         0.1373   -0.0577    2.0407 O.3       1 ACP        -0.5877
     21 C1'         1.3733    1.5427    0.6747 C.3       1 ACP         0.3822
     22 N9          0.4520    2.5240    0.1767 N.pl3     1 ACP        -0.4391
     23 C8          0.1798    2.8712   -1.2933 C.ar      1 ACP         0.1869
     24 N7         -0.7494    3.8400   -1.3610 N.2       1 ACP        -0.2730
     25 C5         -1.0173    4.0603   -0.0358 C.ar      1 ACP        -0.1385
     26 C6         -2.0105    5.0717    0.4241 C.ar      1 ACP         0.4818
     27 N6         -2.6723    5.7982   -0.4628 N.pl3     1 ACP        -0.8277
     28 N1         -2.1445    5.1522    1.7502 N.pl3     1 ACP        -0.6982
     29 C2         -1.3755    4.3143    2.6427 C.ar      1 ACP         0.6213
     30 N3         -0.5075    3.4292    2.2616 N.ar      1 ACP        -0.5099
     31 C4         -0.3667    3.3425    0.9070 C.ar      1 ACP         0.2813
     32 HOG3        2.1714   -6.1203   -3.0795 H         1 ACP         0.4118
     33 H3B1        3.4069   -3.1584   -6.1670 H         1 ACP         0.0929
     34 H3B2        4.2355   -4.6415   -5.7061 H         1 ACP         0.0929
     35 HOA2        6.1695   -0.8331   -2.2399 H         1 ACP         0.4544
     36 H5'1        1.2148   -0.0787   -2.0445 H         1 ACP         0.0887
     37 H5'2        2.4640   -1.3460   -2.1537 H         1 ACP         0.0887
     38 H4'         3.8046   -0.1390   -0.4012 H         1 ACP         0.1198
     39 H3'         1.6786   -1.7628    0.2719 H         1 ACP         0.0796
     40 HO3'        2.2231   -1.2979    2.3952 H         1 ACP         0.4356
     41 H2'         0.0002   -0.0084   -0.0014 H         1 ACP         0.0714
     42 HO2'       -0.1554   -0.9852    2.0577 H         1 ACP         0.4430
     43 H1'         1.7718    1.9211    1.6015 H         1 ACP         0.1194
     44 H8          0.6089    2.4651   -2.2147 H         1 ACP         0.2736
     45 HN61       -2.5055    5.6680   -1.4503 H         1 ACP         0.4770
     46 HN62       -3.3462    6.4841   -0.1542 H         1 ACP         0.4770
     47 H2         -1.5932    4.4937    3.7066 H         1 ACP         0.0919
     48 H48        -2.8098    5.8270    2.1160 H         1 ACP         0.4736
@<TRIPOS>BOND
     1    1    2 2
     2    1    3 1
     3    1    4 1
     4    1    8 1
     5    4   32 1
     6    5    6 2
     7    5    7 1
     8    5    8 1
     9    5   12 1
    10    8   33 1
    11    8   34 1
    12    9   10 2
    13    9   11 1
    14    9   12 1
    15    9   13 1
    16   11   35 1
    17   13   14 1
    18   14   15 1
    19   14   36 1
    20   14   37 1
    21   15   16 1
    22   15   17 1
    23   15   38 1
    24   16   21 1
    25   17   18 1
    26   17   19 1
    27   17   39 1
    28   18   40 1
    29   19   20 1
    30   19   21 1
    31   19   41 1
    32   20   42 1
    33   21   22 1
    34   21   43 1
    35   22   23 ar
    36   22   31 ar
    37   23   24 ar
    38   23   44 1
    39   24   25 ar
    40   25   26 ar
    41   25   31 ar
    42   26   27 1
    43   26   28 ar
    44   27   45 1
    45   27   46 1
    46   28   29 ar
    47   28   48 1
    48   29   30 ar
    49   29   47 1
    50   30   31 ar
@<TRIPOS>SUBSTRUCTURE
     1 ACP         1 GROUP 0 A     ****
@<TRIPOS>MOLECULE
[[5-(6-amino-1,8-dihydropurine-6,8-diylium-7-id-9-yl)-3,4-dihydroxy-tetrahydrofuran-2-yl]methoxy-hydroxy-phosphoryl]oxy-[[hydroxy(oxido)phosphoryl]methyl]phosphinate
   48    50     1     0     0
SMALL
USER_CHARGES

@<TRIPOS>ATOM
      1 PG         -3.8646   -5.7573    7.1120 P.3       1 ACP         1.3752
      2 O1G        -4.2219   -4.7704    8.1987 O.co2     1 ACP        -0.8816
      3 O2G        -2.5328   -6.4711    7.0808 O.co2     1 ACP        -0.8816
      4 O3G        -5.0660   -6.8498    6.9579 O.3       1 ACP        -0.7903
      5 PB         -3.7469   -5.7186    3.8616 P.3       1 ACP         1.5257
      6 O1B        -4.0297   -4.6938    2.7872 O.co2     1 ACP        -0.8730
      7 O2B        -4.4366   -7.0633    3.8849 O.co2     1 ACP        -0.8730
      8 C3B        -4.0709   -4.9039    5.4874 C.3       1 ACP        -0.5822
      9 PA         -1.0079   -6.4123    2.9424 P.3       1 ACP         1.7803
     10 O1A        -1.2148   -7.7925    2.3901 O.2       1 ACP        -0.8736
     11 O2A         0.3745   -6.2212    3.7611 O.3       1 ACP        -0.7984
     12 O3A        -2.1372   -5.9247    3.9902 O.3       1 ACP        -0.7763
     13 O5'        -0.9731   -5.2420    1.8247 O.3       1 ACP        -0.5927
     14 C5'        -0.7840   -3.8935    2.2172 C.3       1 ACP         0.1349
     15 C4'        -0.0724   -3.1466    1.1027 C.3       1 ACP         0.1151
     16 O4'        -0.8674   -3.1929   -0.0945 O.3       1 ACP        -0.3857
     17 C3'         0.1338   -1.6715    1.4027 C.3       1 ACP         0.0978
     18 O3'         1.2893   -1.4445    2.1808 O.3       1 ACP        -0.5800
     19 C2'         0.2158   -1.0724    0.0128 C.3       1 ACP         0.0885
     20 O2'         1.5141   -1.2448   -0.5513 O.3       1 ACP        -0.5877
     21 C1'        -0.7897   -1.9176   -0.7583 C.3       1 ACP         0.3822
     22 N9         -2.1040   -1.3333   -0.7704 N.pl3     1 ACP        -0.4391
     23 C8         -3.2124   -1.5345    0.2719 C.ar      1 ACP         0.1869
     24 N7         -4.2964   -0.8234   -0.0828 N.2       1 ACP        -0.2730
     25 C5         -3.8754   -0.2386   -1.2478 C.ar      1 ACP        -0.1385
     26 C6         -4.7432    0.6719   -2.0470 C.ar      1 ACP         0.4818
     27 N6         -5.9725    0.9415   -1.6366 N.pl3     1 ACP        -0.8277
     28 N1         -4.1703    1.1517   -3.1536 N.pl3     1 ACP        -0.6982
     29 C2         -2.8174    0.7994   -3.5215 C.ar      1 ACP         0.6213
     30 N3         -2.0475    0.0097   -2.8393 N.ar      1 ACP        -0.5099
     31 C4         -2.6278   -0.4836   -1.7071 C.ar      1 ACP         0.2813
     32 HOG3       -5.2976   -7.4029    7.7343 H         1 ACP         0.4118
     33 H3B1       -3.4397   -4.0104    5.5272 H         1 ACP         0.0929
     34 H3B2       -5.1104   -4.5589    5.4489 H         1 ACP         0.0929
     35 HOA2        1.2252   -6.3760    3.2979 H         1 ACP         0.4544
     36 H5'1       -1.7611   -3.4415    2.4168 H         1 ACP         0.0887
     37 H5'2       -0.1867   -3.8711    3.1345 H         1 ACP         0.0887
     38 H4'         0.8883   -3.6448    0.8784 H         1 ACP         0.1198
     39 H3'        -0.7368   -1.2358    1.9871 H         1 ACP         0.0796
     40 HO3'        1.3407   -0.4871    2.3218 H         1 ACP         0.4356
     41 H2'        -0.0343   -0.0280    0.0196 H         1 ACP         0.0714
     42 HO2'        2.1443   -0.7955    0.0378 H         1 ACP         0.4430
     43 H1'        -0.5175   -2.1046   -1.7826 H         1 ACP         0.1194
     44 H8         -3.2310   -2.1319    1.1889 H         1 ACP         0.2736
     45 HN61       -6.3230    0.5316   -0.7829 H         1 ACP         0.4770
     46 HN62       -6.5628    1.5584   -2.1760 H         1 ACP         0.4770
     47 H2         -2.4822    1.2710   -4.4579 H         1 ACP         0.0919
     48 H48        -4.7200    1.7780   -3.7346 H         1 ACP         0.4736
@<TRIPOS>BOND
     1    1    2 2
     2    1    3 1
     3    1    4 1
     4    1    8 1
     5    4   32 1
     6    5    6 2
     7    5    7 1
     8    5    8 1
     9    5   12 1
    10    8   33 1
    11    8   34 1
    12    9   10 2
    13    9   11 1
    14    9   12 1
    15    9   13 1
    16   11   35 1
    17   13   14 1
    18   14   15 1
    19   14   36 1
    20   14   37 1
    21   15   16 1
    22   15   17 1
    23   15   38 1
    24   16   21 1
    25   17   18 1
    26   17   19 1
    27   17   39 1
    28   18   40 1
    29   19   20 1
    30   19   21 1
    31   19   41 1
    32   20   42 1
    33   21   22 1
    34   21   43 1
    35   22   23 ar
    36   22   31 ar
    37   23   24 ar
    38   23   44 1
    39   24   25 ar
    40   25   26 ar
    41   25   31 ar
    42   26   27 1
    43   26   28 ar
    44   27   45 1
    45   27   46 1
    46   28   29 ar
    47   28   48 1
    48   29   30 ar
    49   29   47 1
    50   30   31 ar
@<TRIPOS>SUBSTRUCTURE
     1 ACP         1 GROUP 0 A     ****
@<TRIPOS>MOLECULE
[[5-(6-amino-1,8-dihydropurine-6,8-diylium-7-id-9-yl)-3,4-dihydroxy-tetrahydrofuran-2-yl]methoxy-hydroxy-phosphoryl]oxy-[[hydroxy(oxido)phosphoryl]methyl]phosphinate
   48    50     1     0     0
SMALL
USER_CHARGES

@<TRIPOS>ATOM
      1 PG          0.9266   -4.6416   -5.9415 P.3       1 ACP         1.3752
      2 O1G         1.9935   -5.6133   -6.3890 O.co2     1 ACP        -0.8816
      3 O2G         0.7354   -3.2968   -6.6043 O.co2     1 ACP        -0.8816
      4 O3G        -0.5083   -5.4132   -5.8626 O.3       1 ACP        -0.7903
      5 PB          0.0898   -3.2099   -3.1432 P.3       1 ACP         1.5257
      6 O1B         0.6098   -3.2357   -1.7242 O.co2     1 ACP        -0.8730
      7 O2B        -1.3458   -3.5473   -3.4745 O.co2     1 ACP        -0.8730
      8 C3B         1.1650   -4.3373   -4.1357 C.3       1 ACP        -0.5822
      9 PA          0.1505   -0.2565   -3.4626 P.3       1 ACP         1.7803
     10 O1A        -1.3126    0.0783   -3.4578 O.2       1 ACP        -0.8736
     11 O2A         1.0262    0.5928   -4.5255 O.3       1 ACP        -0.7984
     12 O3A         0.4938   -1.7915   -3.8325 O.3       1 ACP        -0.7763
     13 O5'         0.8979   -0.0136   -2.0475 O.3       1 ACP        -0.5927
     14 C5'         2.2816   -0.2918   -1.9206 C.3       1 ACP         0.1349
     15 C4'         2.7248    0.0226   -0.4980 C.3       1 ACP         0.1151
     16 O4'         2.4697    1.4219   -0.2462 O.3       1 ACP        -0.3857
     17 C3'         1.9404   -0.7419    0.5596 C.3       1 ACP         0.0978
     18 O3'         2.7418   -0.8086    1.7389 O.3       1 ACP        -0.5800
     19 C2'         0.7477    0.1630    0.7858 C.3       1 ACP         0.0885
     20 O2'         0.1373   -0.0577    2.0407 O.3       1 ACP        -0.5877
     21 C1'         1.3733    1.5427    0.6747 C.3       1 ACP         0.3822
     22 N9          0.4520    2.5240    0.1767 N.pl3     1 ACP        -0.4391
     23 C8          0.1798    2.8712   -1.2933 C.ar      1 ACP         0.1869
     24 N7         -0.7494    3.8400   -1.3610 N.2       1 ACP        -0.2730
     25 C5         -1.0173    4.0603   -0.0358 C.ar      1 ACP        -0.1385
     26 C6         -2.0105    5.0717    0.4241 C.ar      1 ACP         0.4818
     27 N6         -2.6723    5.7982   -0.4628 N.pl3     1 ACP        -0.8277
     28 N1         -2.1445    5.1522    1.7502 N.pl3     1 ACP        -0.6982
     29 C2         -1.3755    4.3143    2.6427 C.ar      1 ACP         0.6213
     30 N3         -0.5075    3.4292    2.2616 N.ar      1 ACP        -0.5099
     31 C4         -0.3667    3.3425    0.9070 C.ar      1 ACP         0.2813
     32 HOG3       -0.8657   -5.8207   -6.6801 H         1 ACP         0.4118
     33 H3B1        2.1937   -3.9824   -4.0169 H         1 ACP         0.0929
     34 H3B2        1.1065   -5.3163   -3.6466 H         1 ACP         0.0929
     35 HOA2        1.0495    1.5703   -4.4469 H         1 ACP         0.4544
     36 H5'1        2.4537   -1.3486   -2.1497 H         1 ACP         0.0887
     37 H5'2        2.8347    0.3231   -2.6381 H         1 ACP         0.0887
     38 H4'         3.8046   -0.1390   -0.4012 H         1 ACP         0.1198
     39 H3'         1.6786   -1.7628    0.2719 H         1 ACP         0.0796
     40 HO3'        2.2231   -1.2979    2.3952 H         1 ACP         0.4356
     41 H2'         0.0002   -0.0084   -0.0014 H         1 ACP         0.0714
     42 HO2'       -0.6132    0.5577    2.1063 H         1 ACP         0.4430
     43 H1'         1.7718    1.9211    1.6015 H         1 ACP         0.1194
     44 H8          0.6089    2.4651   -2.2147 H         1 ACP         0.2736
     45 HN61       -2.5055    5.6680   -1.4503 H         1 ACP         0.4770
     46 HN62       -3.3462    6.4841   -0.1542 H         1 ACP         0.4770
     47 H2         -1.5932    4.4937    3.7066 H         1 ACP         0.0919
     48 H48        -2.8098    5.8270    2.1160 H         1 ACP         0.4736
@<TRIPOS>BOND
     1    1    2 2
     2    1    3 1
     3    1    4 1
     4    1    8 1
     5    4   32 1
     6    5    6 2
     7    5    7 1
     8    5    8 1
     9    5   12 1
    10    8   33 1
    11    8   34 1
    12    9   10 2
    13    9   11 1
    14    9   12 1
    15    9   13 1
    16   11   35 1
    17   13   14 1
    18   14   15 1
    19   14   36 1
    20   14   37 1
    21   15   16 1
    22   15   17 1
    23   15   38 1
    24   16   21 1
    25   17   18 1
    26   17   19 1
    27   17   39 1
    28   18   40 1
    29   19   20 1
    30   19   21 1
    31   19   41 1
    32   20   42 1
    33   21   22 1
    34   21   43 1
    35   22   23 ar
    36   22   31 ar
    37   23   24 ar
    38   23   44 1
    39   24   25 ar
    40   25   26 ar
    41   25   31 ar
    42   26   27 1
    43   26   28 ar
    44   27   45 1
    45   27   46 1
    46   28   29 ar
    47   28   48 1
    48   29   30 ar
    49   29   47 1
    50   30   31 ar
@<TRIPOS>SUBSTRUCTURE
     1 ACP         1 GROUP 0 A     ****
@<TRIPOS>MOLECULE
[[5-(6-amino-1,8-dihydropurine-6,8-diylium-7-id-9-yl)-3,4-dihydroxy-tetrahydrofuran-2-yl]methoxy-hydroxy-phosphoryl]oxy-[[hydroxy(oxido)phosphoryl]methyl]phosphinate
   48    50     1     0     0
SMALL
USER_CHARGES

@<TRIPOS>ATOM
      1 PG         -1.5280   -0.3219   -5.0333 P.3       1 ACP         1.3752
      2 O1G        -2.6056    0.5244   -5.6700 O.co2     1 ACP        -0.8816
      3 O2G        -0.8290    0.0923   -3.7588 O.co2     1 ACP        -0.8816
      4 O3G        -2.0642   -1.8548   -4.8810 O.3       1 ACP        -0.7903
      5 PB          1.3018   -1.6130   -5.9848 P.3       1 ACP         1.5257
      6 O1B         2.1042   -1.6202   -7.2657 O.co2     1 ACP        -0.8730
      7 O2B         0.8738   -2.8920   -5.3027 O.co2     1 ACP        -0.8730
      8 C3B        -0.2233   -0.6213   -6.3054 C.3       1 ACP        -0.5822
      9 PA          3.4942   -0.6454   -4.2283 P.3       1 ACP         1.7803
     10 O1A         4.5922   -0.0921   -5.0891 O.2       1 ACP        -0.8736
     11 O2A         3.6977   -2.1921   -3.7990 O.3       1 ACP        -0.7984
     12 O3A         2.0281   -0.6323   -4.9073 O.3       1 ACP        -0.7763
     13 O5'         3.2872    0.1331   -2.8242 O.3       1 ACP        -0.5927
     14 C5'         2.2816   -0.2918   -1.9206 C.3       1 ACP         0.1349
     15 C4'         2.7248    0.0226   -0.4980 C.3       1 ACP         0.1151
     16 O4'         2.4697    1.4219   -0.2462 O.3       1 ACP        -0.3857
     17 C3'         1.9404   -0.7419    0.5596 C.3       1 ACP         0.0978
     18 O3'         2.7418   -0.8086    1.7389 O.3       1 ACP        -0.5800
     19 C2'         0.7477    0.1630    0.7858 C.3       1 ACP         0.0885
     20 O2'         0.1373   -0.0577    2.0407 O.3       1 ACP        -0.5877
     21 C1'         1.3733    1.5427    0.6747 C.3       1 ACP         0.3822
     22 N9          0.4520    2.5240    0.1767 N.pl3     1 ACP        -0.4391
     23 C8         -0.7463    2.2774   -0.7501 C.ar      1 ACP         0.1869
     24 N7         -1.3714    3.4419   -0.9948 N.2       1 ACP        -0.2730
     25 C5         -0.6104    4.3223   -0.2722 C.ar      1 ACP        -0.1385
     26 C6         -0.9062    5.7820   -0.2194 C.ar      1 ACP         0.4818
     27 N6         -1.9385    6.2713   -0.8881 N.pl3     1 ACP        -0.8277
     28 N1         -0.0613    6.4906    0.5336 N.pl3     1 ACP        -0.6982
     29 C2          1.0416    5.8662    1.2291 C.ar      1 ACP         0.6213
     30 N3          1.3146    4.5989    1.1954 N.ar      1 ACP        -0.5099
     31 C4          0.4541    3.8697    0.4273 C.ar      1 ACP         0.2813
     32 HOG3       -2.8656   -2.0183   -4.3395 H         1 ACP         0.4118
     33 H3B1        0.1047    0.3654   -6.6476 H         1 ACP         0.0929
     34 H3B2       -0.7228   -1.1036   -7.1533 H         1 ACP         0.0929
     35 HOA2        3.7589   -2.8747   -4.5007 H         1 ACP         0.4544
     36 H5'1        1.3493    0.2322   -2.1551 H         1 ACP         0.0887
     37 H5'2        2.1259   -1.3686   -2.0434 H         1 ACP         0.0887
     38 H4'         3.8046   -0.1390   -0.4012 H         1 ACP         0.1198
     39 H3'         1.6786   -1.7628    0.2719 H         1 ACP         0.0796
     40 HO3'        2.2231   -1.2979    2.3952 H         1 ACP         0.4356
     41 H2'         0.0002   -0.0084   -0.0014 H         1 ACP         0.0714
     42 HO2'       -0.6132    0.5577    2.1063 H         1 ACP         0.4430
     43 H1'         1.7718    1.9211    1.6015 H         1 ACP         0.1194
     44 H8         -1.1244    1.3534   -1.1987 H         1 ACP         0.2736
     45 HN61       -2.5259    5.6573   -1.4336 H         1 ACP         0.4770
     46 HN62       -2.1416    7.2600   -0.8539 H         1 ACP         0.4770
     47 H2          1.6509    6.5764    1.8088 H         1 ACP         0.0919
     48 H48        -0.2190    7.4917    0.6033 H         1 ACP         0.4736
@<TRIPOS>BOND
     1    1    2 2
     2    1    3 1
     3    1    4 1
     4    1    8 1
     5    4   32 1
     6    5    6 2
     7    5    7 1
     8    5    8 1
     9    5   12 1
    10    8   33 1
    11    8   34 1
    12    9   10 2
    13    9   11 1
    14    9   12 1
    15    9   13 1
    16   11   35 1
    17   13   14 1
    18   14   15 1
    19   14   36 1
    20   14   37 1
    21   15   16 1
    22   15   17 1
    23   15   38 1
    24   16   21 1
    25   17   18 1
    26   17   19 1
    27   17   39 1
    28   18   40 1
    29   19   20 1
    30   19   21 1
    31   19   41 1
    32   20   42 1
    33   21   22 1
    34   21   43 1
    35   22   23 ar
    36   22   31 ar
    37   23   24 ar
    38   23   44 1
    39   24   25 ar
    40   25   26 ar
    41   25   31 ar
    42   26   27 1
    43   26   28 ar
    44   27   45 1
    45   27   46 1
    46   28   29 ar
    47   28   48 1
    48   29   30 ar
    49   29   47 1
    50   30   31 ar
@<TRIPOS>SUBSTRUCTURE
     1 ACP         1 GROUP 0 A     ****
@<TRIPOS>MOLECULE
[[5-(6-amino-1,8-dihydropurine-6,8-diylium-7-id-9-yl)-3,4-dihydroxy-tetrahydrofuran-2-yl]methoxy-hydroxy-phosphoryl]oxy-[[hydroxy(oxido)phosphoryl]methyl]phosphinate
   48    50     1     0     0
SMALL
USER_CHARGES

@<TRIPOS>ATOM
      1 PG          0.3207    0.0584   -7.4774 P.3       1 ACP         1.3752
      2 O1G         0.1545    1.4390   -8.0682 O.co2     1 ACP        -0.8816
      3 O2G        -0.6689   -0.5182   -6.4913 O.co2     1 ACP        -0.8816
      4 O3G         0.5747   -1.0161   -8.6780 O.3       1 ACP        -0.7903
      5 PB          2.6431   -1.5210   -5.8365 P.3       1 ACP         1.5257
      6 O1B         4.0283   -1.1803   -5.3368 O.co2     1 ACP        -0.8730
      7 O2B         2.3887   -2.7039   -6.7424 O.co2     1 ACP        -0.8730
      8 C3B         1.9905   -0.0199   -6.6925 C.3       1 ACP        -0.5822
      9 PA          1.5744   -2.4620   -3.2287 P.3       1 ACP         1.7803
     10 O1A         1.9413   -3.9047   -3.4206 O.2       1 ACP        -0.8736
     11 O2A         0.0769   -2.2234   -2.6641 O.3       1 ACP        -0.7984
     12 O3A         1.6176   -1.5665   -4.5730 O.3       1 ACP        -0.7763
     13 O5'         2.5233   -1.6621   -2.1894 O.3       1 ACP        -0.5927
     14 C5'         2.2816   -0.2918   -1.9206 C.3       1 ACP         0.1349
     15 C4'         2.7248    0.0226   -0.4980 C.3       1 ACP         0.1151
     16 O4'         2.4697    1.4219   -0.2462 O.3       1 ACP        -0.3857
     17 C3'         1.9404   -0.7419    0.5596 C.3       1 ACP         0.0978
     18 O3'         2.7418   -0.8086    1.7389 O.3       1 ACP        -0.5800
     19 C2'         0.7477    0.1630    0.7858 C.3       1 ACP         0.0885
     20 O2'         0.1373   -0.0577    2.0407 O.3       1 ACP        -0.5877
     21 C1'         1.3733    1.5427    0.6747 C.3       1 ACP         0.3822
     22 N9          0.4520    2.5240    0.1767 N.pl3     1 ACP        -0.4391
     23 C8         -0.4598    3.4379    1.0068 C.ar      1 ACP         0.1869
     24 N7         -1.1770    4.2228    0.1845 N.2       1 ACP        -0.2730
     25 C5         -0.7330    3.8149   -1.0455 C.ar      1 ACP        -0.1385
     26 C6         -1.2413    4.4029   -2.3169 C.ar      1 ACP         0.4818
     27 N6         -2.1578    5.3575   -2.2832 N.pl3     1 ACP        -0.8277
     28 N1         -0.6977    3.8860   -3.4216 N.pl3     1 ACP        -0.6982
     29 C2          0.3002    2.8419   -3.3591 C.ar      1 ACP         0.6213
     30 N3          0.7548    2.3183   -2.2631 N.ar      1 ACP        -0.5099
     31 C4          0.2027    2.8430   -1.1309 C.ar      1 ACP         0.2813
     32 HOG3       -0.1154   -1.1187   -9.3675 H         1 ACP         0.4118
     33 H3B1        2.0290    0.8010   -5.9692 H         1 ACP         0.0929
     34 H3B2        2.7144    0.2152   -7.4810 H         1 ACP         0.0929
     35 HOA2       -0.1681   -2.6049   -1.7943 H         1 ACP         0.4544
     36 H5'1        2.8428    0.3151   -2.6386 H         1 ACP         0.0887
     37 H5'2        1.2124   -0.0895   -2.0416 H         1 ACP         0.0887
     38 H4'         3.8046   -0.1390   -0.4012 H         1 ACP         0.1198
     39 H3'         1.6786   -1.7628    0.2719 H         1 ACP         0.0796
     40 HO3'        2.2231   -1.2979    2.3952 H         1 ACP         0.4356
     41 H2'         0.0002   -0.0084   -0.0014 H         1 ACP         0.0714
     42 HO2'       -0.6132    0.5577    2.1063 H         1 ACP         0.4430
     43 H1'         1.7718    1.9211    1.6015 H         1 ACP         0.1194
     44 H8         -0.5892    3.5248    2.0902 H         1 ACP         0.2736
     45 HN61       -2.5128    5.6880   -1.3974 H         1 ACP         0.4770
     46 HN62       -2.5040    5.7581   -3.1431 H         1 ACP         0.4770
     47 H2          0.6550    2.5166   -4.3490 H         1 ACP         0.0919
     48 H48        -1.0101    4.2527   -4.3160 H         1 ACP         0.4736
@<TRIPOS>BOND
     1    1    2 2
     2    1    3 1
     3    1    4 1
     4    1    8 1
     5    4   32 1
     6    5    6 2
     7    5    7 1
     8    5    8 1
     9    5   12 1
    10    8   33 1
    11    8   34 1
    12    9   10 2
    13    9   11 1
    14    9   12 1
    15    9   13 1
    16   11   35 1
    17   13   14 1
    18   14   15 1
    19   14   36 1
    20   14   37 1
    21   15   16 1
    22   15   17 1
    23   15   38 1
    24   16   21 1
    25   17   18 1
    26   17   19 1
    27   17   39 1
    28   18   40 1
    29   19   20 1
    30   19   21 1
    31   19   41 1
    32   20   42 1
    33   21   22 1
    34   21   43 1
    35   22   23 ar
    36   22   31 ar
    37   23   24 ar
    38   23   44 1
    39   24   25 ar
    40   25   26 ar
    41   25   31 ar
    42   26   27 1
    43   26   28 ar
    44   27   45 1
    45   27   46 1
    46   28   29 ar
    47   28   48 1
    48   29   30 ar
    49   29   47 1
    50   30   31 ar
@<TRIPOS>SUBSTRUCTURE
     1 ACP         1 GROUP 0 A     ****
@<TRIPOS>MOLECULE
[[5-(6-amino-1,8-dihydropurine-6,8-diylium-7-id-9-yl)-3,4-dihydroxy-tetrahydrofuran-2-yl]methoxy-hydroxy-phosphoryl]oxy-[[hydroxy(oxido)phosphoryl]methyl]phosphinate
   48    50     1     0     0
SMALL
USER_CHARGES

@<TRIPOS>ATOM
      1 PG         -0.7724    3.7078   -5.6565 P.3       1 ACP         1.3752
      2 O1G        -2.1986    4.1606   -5.4477 O.co2     1 ACP        -0.8816
      3 O2G        -0.4363    2.3643   -6.2617 O.co2     1 ACP        -0.8816
      4 O3G         0.0559    4.8747   -6.4392 O.3       1 ACP        -0.7903
      5 PB          1.8686    3.3563   -3.7904 P.3       1 ACP         1.5257
      6 O1B         2.1918    3.5794   -2.3309 O.co2     1 ACP        -0.8730
      7 O2B         2.6581    4.0211   -4.8946 O.co2     1 ACP        -0.8730
      8 C3B         0.0944    3.8118   -4.0292 C.3       1 ACP        -0.5822
      9 PA          2.8832    0.6136   -4.3162 P.3       1 ACP         1.7803
     10 O1A         4.0443    1.0370   -5.1680 O.2       1 ACP        -0.8736
     11 O2A         2.0320   -0.6248   -4.9158 O.3       1 ACP        -0.7984
     12 O3A         1.7669    1.7566   -4.0746 O.3       1 ACP        -0.7763
     13 O5'         3.2872    0.1331   -2.8242 O.3       1 ACP        -0.5927
     14 C5'         2.2816   -0.2918   -1.9206 C.3       1 ACP         0.1349
     15 C4'         2.7248    0.0226   -0.4980 C.3       1 ACP         0.1151
     16 O4'         2.4697    1.4219   -0.2462 O.3       1 ACP        -0.3857
     17 C3'         1.9404   -0.7419    0.5596 C.3       1 ACP         0.0978
     18 O3'         2.7418   -0.8086    1.7389 O.3       1 ACP        -0.5800
     19 C2'         0.7477    0.1630    0.7858 C.3       1 ACP         0.0885
     20 O2'         0.1373   -0.0577    2.0407 O.3       1 ACP        -0.5877
     21 C1'         1.3733    1.5427    0.6747 C.3       1 ACP         0.3822
     22 N9          0.4520    2.5240    0.1767 N.pl3     1 ACP        -0.4391
     23 C8         -0.7463    2.2774   -0.7501 C.ar      1 ACP         0.1869
     24 N7         -1.3714    3.4419   -0.9948 N.2       1 ACP        -0.2730
     25 C5         -0.6104    4.3223   -0.2722 C.ar      1 ACP        -0.1385
     26 C6         -0.9062    5.7820   -0.2194 C.ar      1 ACP         0.4818
     27 N6         -1.9385    6.2713   -0.8881 N.pl3     1 ACP        -0.8277
     28 N1         -0.0613    6.4906    0.5336 N.pl3     1 ACP        -0.6982
     29 C2          1.0416    5.8662    1.2291 C.ar      1 ACP         0.6213
     30 N3          1.3146    4.5989    1.1954 N.ar      1 ACP        -0.5099
     31 C4          0.4541    3.8697    0.4273 C.ar      1 ACP         0.2813
     32 HOG3       -0.2531    5.1516   -7.3280 H         1 ACP         0.4118
     33 H3B1       -0.4877    3.2015   -3.3312 H         1 ACP         0.0929
     34 H3B2        0.0036    4.8519   -3.6962 H         1 ACP         0.0929
     35 HOA2        1.6049   -0.5258   -5.7933 H         1 ACP         0.4544
     36 H5'1        1.3493    0.2322   -2.1551 H         1 ACP         0.0887
     37 H5'2        2.1259   -1.3686   -2.0434 H         1 ACP         0.0887
     38 H4'         3.8046   -0.1390   -0.4012 H         1 ACP         0.1198
     39 H3'         1.6786   -1.7628    0.2719 H         1 ACP         0.0796
     40 HO3'        2.2231   -1.2979    2.3952 H         1 ACP         0.4356
     41 H2'         0.0002   -0.0084   -0.0014 H         1 ACP         0.0714
     42 HO2'       -0.6132    0.5577    2.1063 H         1 ACP         0.4430
     43 H1'         1.7718    1.9211    1.6015 H         1 ACP         0.1194
     44 H8         -1.1244    1.3534   -1.1987 H         1 ACP         0.2736
     45 HN61       -2.5259    5.6573   -1.4336 H         1 ACP         0.4770
     46 HN62       -2.1416    7.2600   -0.8539 H         1 ACP         0.4770
     47 H2          1.6509    6.5764    1.8088 H         1 ACP         0.0919
     48 H48        -0.2190    7.4917    0.6033 H         1 ACP         0.4736
@<TRIPOS>BOND
     1    1    2 2
     2    1    3 1
     3    1    4 1
     4    1    8 1
     5    4   32 1
     6    5    6 2
     7    5    7 1
     8    5    8 1
     9    5   12 1
    10    8   33 1
    11    8   34 1
    12    9   10 2
    13    9   11 1
    14    9   12 1
    15    9   13 1
    16   11   35 1
    17   13   14 1
    18   14   15 1
    19   14   36 1
    20   14   37 1
    21   15   16 1
    22   15   17 1
    23   15   38 1
    24   16   21 1
    25   17   18 1
    26   17   19 1
    27   17   39 1
    28   18   40 1
    29   19   20 1
    30   19   21 1
    31   19   41 1
    32   20   42 1
    33   21   22 1
    34   21   43 1
    35   22   23 ar
    36   22   31 ar
    37   23   24 ar
    38   23   44 1
    39   24   25 ar
    40   25   26 ar
    41   25   31 ar
    42   26   27 1
    43   26   28 ar
    44   27   45 1
    45   27   46 1
    46   28   29 ar
    47   28   48 1
    48   29   30 ar
    49   29   47 1
    50   30   31 ar
@<TRIPOS>SUBSTRUCTURE
     1 ACP         1 GROUP 0 A     ****
@<TRIPOS>MOLECULE
[[5-(6-amino-1,8-dihydropurine-6,8-diylium-7-id-9-yl)-3,4-dihydroxy-tetrahydrofuran-2-yl]methoxy-hydroxy-phosphoryl]oxy-[[hydroxy(oxido)phosphoryl]methyl]phosphinate
   48    50     1     0     0
SMALL
USER_CHARGES

@<TRIPOS>ATOM
      1 PG          6.5007   -0.6250   -6.7231 P.3       1 ACP         1.3752
      2 O1G         7.1042    0.5061   -7.5224 O.co2     1 ACP        -0.8816
      3 O2G         5.1934   -1.2760   -7.1125 O.co2     1 ACP        -0.8816
      4 O3G         7.6280   -1.7793   -6.4839 O.3       1 ACP        -0.7903
      5 PB          5.6375   -1.1000   -3.6232 P.3       1 ACP         1.5257
      6 O1B         5.6710   -0.2730   -2.3585 O.co2     1 ACP        -0.8730
      7 O2B         6.3064   -2.4525   -3.7116 O.co2     1 ACP        -0.8730
      8 C3B         6.3320   -0.0513   -4.9759 C.3       1 ACP        -0.5822
      9 PA          2.8566   -2.1437   -3.6985 P.3       1 ACP         1.7803
     10 O1A         3.0912   -3.6192   -3.8419 O.2       1 ACP        -0.8736
     11 O2A         1.6238   -1.5751   -4.5786 O.3       1 ACP        -0.7984
     12 O3A         4.0996   -1.2128   -4.1449 O.3       1 ACP        -0.7763
     13 O5'         2.5233   -1.6621   -2.1894 O.3       1 ACP        -0.5927
     14 C5'         2.2816   -0.2918   -1.9206 C.3       1 ACP         0.1349
     15 C4'         2.7248    0.0226   -0.4980 C.3       1 ACP         0.1151
     16 O4'         2.4697    1.4219   -0.2462 O.3       1 ACP        -0.3857
     17 C3'         1.9404   -0.7419    0.5596 C.3       1 ACP         0.0978
     18 O3'         2.7418   -0.8086    1.7389 O.3       1 ACP        -0.5800
     19 C2'         0.7477    0.1630    0.7858 C.3       1 ACP         0.0885
     20 O2'         0.1373   -0.0577    2.0407 O.3       1 ACP        -0.5877
     21 C1'         1.3733    1.5427    0.6747 C.3       1 ACP         0.3822
     22 N9          0.4520    2.5240    0.1767 N.pl3     1 ACP        -0.4391
     23 C8          0.5793    3.3338   -1.1209 C.ar      1 ACP         0.1869
     24 N7         -0.4807    4.1508   -1.2458 N.2       1 ACP        -0.2730
     25 C5         -1.1921    3.8572   -0.1126 C.ar      1 ACP        -0.1385
     26 C6         -2.4855    4.5203    0.2163 C.ar      1 ACP         0.4818
     27 N6         -2.9873    5.4319   -0.6020 N.pl3     1 ACP        -0.8277
     28 N1         -3.0414    4.1119    1.3596 N.pl3     1 ACP        -0.6982
     29 C2         -2.4169    3.1071    2.1904 C.ar      1 ACP         0.6213
     30 N3         -1.2928    2.5191    1.9210 N.ar      1 ACP        -0.5099
     31 C4         -0.7202    2.9326    0.7534 C.ar      1 ACP         0.2813
     32 HOG3        8.0291   -2.2110   -7.2681 H         1 ACP         0.4118
     33 H3B1        5.7320    0.8637   -5.0094 H         1 ACP         0.0929
     34 H3B2        7.3366    0.2375   -4.6468 H         1 ACP         0.0929
     35 HOA2        1.4116   -0.6184   -4.5348 H         1 ACP         0.4544
     36 H5'1        2.8428    0.3151   -2.6386 H         1 ACP         0.0887
     37 H5'2        1.2124   -0.0895   -2.0416 H         1 ACP         0.0887
     38 H4'         3.8046   -0.1390   -0.4012 H         1 ACP         0.1198
     39 H3'         1.6786   -1.7628    0.2719 H         1 ACP         0.0796
     40 HO3'        3.5553   -1.2733    1.4913 H         1 ACP         0.4356
     41 H2'         0.0002   -0.0084   -0.0014 H         1 ACP         0.0714
     42 HO2'        0.8091    0.1203    2.7213 H         1 ACP         0.4430
     43 H1'         1.7718    1.9211    1.6015 H         1 ACP         0.1194
     44 H8          1.3565    3.3309   -1.8916 H         1 ACP         0.2736
     45 HN61       -2.4952    5.6785   -1.4487 H         1 ACP         0.4770
     46 HN62       -3.8637    5.8828   -0.3819 H         1 ACP         0.4770
     47 H2         -2.9911    2.8734    3.1000 H         1 ACP         0.0919
     48 H48        -3.9253    4.5332    1.6302 H         1 ACP         0.4736
@<TRIPOS>BOND
     1    1    2 2
     2    1    3 1
     3    1    4 1
     4    1    8 1
     5    4   32 1
     6    5    6 2
     7    5    7 1
     8    5    8 1
     9    5   12 1
    10    8   33 1
    11    8   34 1
    12    9   10 2
    13    9   11 1
    14    9   12 1
    15    9   13 1
    16   11   35 1
    17   13   14 1
    18   14   15 1
    19   14   36 1
    20   14   37 1
    21   15   16 1
    22   15   17 1
    23   15   38 1
    24   16   21 1
    25   17   18 1
    26   17   19 1
    27   17   39 1
    28   18   40 1
    29   19   20 1
    30   19   21 1
    31   19   41 1
    32   20   42 1
    33   21   22 1
    34   21   43 1
    35   22   23 ar
    36   22   31 ar
    37   23   24 ar
    38   23   44 1
    39   24   25 ar
    40   25   26 ar
    41   25   31 ar
    42   26   27 1
    43   26   28 ar
    44   27   45 1
    45   27   46 1
    46   28   29 ar
    47   28   48 1
    48   29   30 ar
    49   29   47 1
    50   30   31 ar
@<TRIPOS>SUBSTRUCTURE
     1 ACP         1 GROUP 0 A     ****
@<TRIPOS>MOLECULE
[[5-(6-amino-1,8-dihydropurine-6,8-diylium-7-id-9-yl)-3,4-dihydroxy-tetrahydrofuran-2-yl]methoxy-hydroxy-phosphoryl]oxy-[[hydroxy(oxido)phosphoryl]methyl]phosphinate
   48    50     1     0     0
SMALL
USER_CHARGES

@<TRIPOS>ATOM
      1 PG          6.5007   -0.6250   -6.7231 P.3       1 ACP         1.3752
      2 O1G         7.1042    0.5061   -7.5224 O.co2     1 ACP        -0.8816
      3 O2G         5.1934   -1.2760   -7.1125 O.co2     1 ACP        -0.8816
      4 O3G         7.6280   -1.7793   -6.4839 O.3       1 ACP        -0.7903
      5 PB          5.6375   -1.1000   -3.6232 P.3       1 ACP         1.5257
      6 O1B         5.6710   -0.2730   -2.3585 O.co2     1 ACP        -0.8730
      7 O2B         6.3064   -2.4525   -3.7116 O.co2     1 ACP        -0.8730
      8 C3B         6.3320   -0.0513   -4.9759 C.3       1 ACP        -0.5822
      9 PA          2.8566   -2.1437   -3.6985 P.3       1 ACP         1.7803
     10 O1A         3.0912   -3.6192   -3.8419 O.2       1 ACP        -0.8736
     11 O2A         1.6238   -1.5751   -4.5786 O.3       1 ACP        -0.7984
     12 O3A         4.0996   -1.2128   -4.1449 O.3       1 ACP        -0.7763
     13 O5'         2.5233   -1.6621   -2.1894 O.3       1 ACP        -0.5927
     14 C5'         2.2816   -0.2918   -1.9206 C.3       1 ACP         0.1349
     15 C4'         2.7248    0.0226   -0.4980 C.3       1 ACP         0.1151
     16 O4'         2.4697    1.4219   -0.2462 O.3       1 ACP        -0.3857
     17 C3'         1.9404   -0.7419    0.5596 C.3       1 ACP         0.0978
     18 O3'         2.7418   -0.8086    1.7389 O.3       1 ACP        -0.5800
     19 C2'         0.7477    0.1630    0.7858 C.3       1 ACP         0.0885
     20 O2'         0.1373   -0.0577    2.0407 O.3       1 ACP        -0.5877
     21 C1'         1.3733    1.5427    0.6747 C.3       1 ACP         0.3822
     22 N9          0.4520    2.5240    0.1767 N.pl3     1 ACP        -0.4391
     23 C8         -0.7463    2.2774   -0.7501 C.ar      1 ACP         0.1869
     24 N7         -1.3714    3.4419   -0.9948 N.2       1 ACP        -0.2730
     25 C5         -0.6104    4.3223   -0.2722 C.ar      1 ACP        -0.1385
     26 C6         -0.9062    5.7820   -0.2194 C.ar      1 ACP         0.4818
     27 N6         -1.9385    6.2713   -0.8881 N.pl3     1 ACP        -0.8277
     28 N1         -0.0613    6.4906    0.5336 N.pl3     1 ACP        -0.6982
     29 C2          1.0416    5.8662    1.2291 C.ar      1 ACP         0.6213
     30 N3          1.3146    4.5989    1.1954 N.ar      1 ACP        -0.5099
     31 C4          0.4541    3.8697    0.4273 C.ar      1 ACP         0.2813
     32 HOG3        8.0291   -2.2110   -7.2681 H         1 ACP         0.4118
     33 H3B1        5.7320    0.8637   -5.0094 H         1 ACP         0.0929
     34 H3B2        7.3366    0.2375   -4.6468 H         1 ACP         0.0929
     35 HOA2        0.7240   -1.9324   -4.4206 H         1 ACP         0.4544
     36 H5'1        2.8428    0.3151   -2.6386 H         1 ACP         0.0887
     37 H5'2        1.2124   -0.0895   -2.0416 H         1 ACP         0.0887
     38 H4'         3.8046   -0.1390   -0.4012 H         1 ACP         0.1198
     39 H3'         1.6786   -1.7628    0.2719 H         1 ACP         0.0796
     40 HO3'        2.2231   -1.2979    2.3952 H         1 ACP         0.4356
     41 H2'         0.0002   -0.0084   -0.0014 H         1 ACP         0.0714
     42 HO2'       -0.6132    0.5577    2.1063 H         1 ACP         0.4430
     43 H1'         1.7718    1.9211    1.6015 H         1 ACP         0.1194
     44 H8         -1.1244    1.3534   -1.1987 H         1 ACP         0.2736
     45 HN61       -2.5259    5.6573   -1.4336 H         1 ACP         0.4770
     46 HN62       -2.1416    7.2600   -0.8539 H         1 ACP         0.4770
     47 H2          1.6509    6.5764    1.8088 H         1 ACP         0.0919
     48 H48        -0.2190    7.4917    0.6033 H         1 ACP         0.4736
@<TRIPOS>BOND
     1    1    2 2
     2    1    3 1
     3    1    4 1
     4    1    8 1
     5    4   32 1
     6    5    6 2
     7    5    7 1
     8    5    8 1
     9    5   12 1
    10    8   33 1
    11    8   34 1
    12    9   10 2
    13    9   11 1
    14    9   12 1
    15    9   13 1
    16   11   35 1
    17   13   14 1
    18   14   15 1
    19   14   36 1
    20   14   37 1
    21   15   16 1
    22   15   17 1
    23   15   38 1
    24   16   21 1
    25   17   18 1
    26   17   19 1
    27   17   39 1
    28   18   40 1
    29   19   20 1
    30   19   21 1
    31   19   41 1
    32   20   42 1
    33   21   22 1
    34   21   43 1
    35   22   23 ar
    36   22   31 ar
    37   23   24 ar
    38   23   44 1
    39   24   25 ar
    40   25   26 ar
    41   25   31 ar
    42   26   27 1
    43   26   28 ar
    44   27   45 1
    45   27   46 1
    46   28   29 ar
    47   28   48 1
    48   29   30 ar
    49   29   47 1
    50   30   31 ar
@<TRIPOS>SUBSTRUCTURE
     1 ACP         1 GROUP 0 A     ****
@<TRIPOS>MOLECULE
[[5-(6-amino-1,8-dihydropurine-6,8-diylium-7-id-9-yl)-3,4-dihydroxy-tetrahydrofuran-2-yl]methoxy-hydroxy-phosphoryl]oxy-[[hydroxy(oxido)phosphoryl]methyl]phosphinate
   48    50     1     0     0
SMALL
USER_CHARGES

@<TRIPOS>ATOM
      1 PG          0.1201   -8.5283    0.7421 P.3       1 ACP         1.3752
      2 O1G         1.0272   -9.1689   -0.2824 O.co2     1 ACP        -0.8816
      3 O2G        -0.4021   -7.1189    0.5836 O.co2     1 ACP        -0.8816
      4 O3G        -1.1247   -9.5319    1.0644 O.3       1 ACP        -0.7903
      5 PB          0.2371   -7.9615    3.9430 P.3       1 ACP         1.5257
      6 O1B         1.2335   -8.2306    5.0472 O.co2     1 ACP        -0.8730
      7 O2B        -1.1902   -8.4533    4.0169 O.co2     1 ACP        -0.8730
      8 C3B         0.9679   -8.6213    2.3800 C.3       1 ACP        -0.5822
      9 PA         -0.0538   -5.0508    4.4639 P.3       1 ACP         1.7803
     10 O1A         0.8351   -4.8672    5.6593 O.2       1 ACP        -0.8736
     11 O2A        -1.6269   -5.1882    4.8167 O.3       1 ACP        -0.7984
     12 O3A         0.2529   -6.3730    3.5872 O.3       1 ACP        -0.7763
     13 O5'         0.0088   -3.8408    3.3906 O.3       1 ACP        -0.5927
     14 C5'        -0.7840   -3.8935    2.2172 C.3       1 ACP         0.1349
     15 C4'        -0.0724   -3.1466    1.1027 C.3       1 ACP         0.1151
     16 O4'        -0.8674   -3.1929   -0.0945 O.3       1 ACP        -0.3857
     17 C3'         0.1338   -1.6715    1.4027 C.3       1 ACP         0.0978
     18 O3'         1.2893   -1.4445    2.1808 O.3       1 ACP        -0.5800
     19 C2'         0.2158   -1.0724    0.0128 C.3       1 ACP         0.0885
     20 O2'         1.5141   -1.2448   -0.5513 O.3       1 ACP        -0.5877
     21 C1'        -0.7897   -1.9176   -0.7583 C.3       1 ACP         0.3822
     22 N9         -2.1040   -1.3333   -0.7704 N.pl3     1 ACP        -0.4391
     23 C8         -3.2124   -1.5345    0.2719 C.ar      1 ACP         0.1869
     24 N7         -4.2964   -0.8234   -0.0828 N.2       1 ACP        -0.2730
     25 C5         -3.8754   -0.2386   -1.2478 C.ar      1 ACP        -0.1385
     26 C6         -4.7432    0.6719   -2.0470 C.ar      1 ACP         0.4818
     27 N6         -5.9725    0.9415   -1.6366 N.pl3     1 ACP        -0.8277
     28 N1         -4.1703    1.1517   -3.1536 N.pl3     1 ACP        -0.6982
     29 C2         -2.8174    0.7994   -3.5215 C.ar      1 ACP         0.6213
     30 N3         -2.0475    0.0097   -2.8393 N.ar      1 ACP        -0.5099
     31 C4         -2.6278   -0.4836   -1.7071 C.ar      1 ACP         0.2813
     32 HOG3       -1.7192   -9.7909    0.3284 H         1 ACP         0.4118
     33 H3B1        1.9391   -8.1327    2.2516 H         1 ACP         0.0929
     34 H3B2        1.1667   -9.6829    2.5658 H         1 ACP         0.0929
     35 HOA2       -1.9207   -5.9249    5.3939 H         1 ACP         0.4544
     36 H5'1       -0.9363   -4.9413    1.9384 H         1 ACP         0.0887
     37 H5'2       -1.7563   -3.4348    2.4247 H         1 ACP         0.0887
     38 H4'         0.8883   -3.6448    0.8784 H         1 ACP         0.1198
     39 H3'        -0.7368   -1.2358    1.9871 H         1 ACP         0.0796
     40 HO3'        1.1625   -1.9325    3.0084 H         1 ACP         0.4356
     41 H2'        -0.0343   -0.0280    0.0196 H         1 ACP         0.0714
     42 HO2'        2.1443   -0.7955    0.0378 H         1 ACP         0.4430
     43 H1'        -0.5175   -2.1046   -1.7826 H         1 ACP         0.1194
     44 H8         -3.2310   -2.1319    1.1889 H         1 ACP         0.2736
     45 HN61       -6.3230    0.5316   -0.7829 H         1 ACP         0.4770
     46 HN62       -6.5628    1.5584   -2.1760 H         1 ACP         0.4770
     47 H2         -2.4822    1.2710   -4.4579 H         1 ACP         0.0919
     48 H48        -4.7200    1.7780   -3.7346 H         1 ACP         0.4736
@<TRIPOS>BOND
     1    1    2 2
     2    1    3 1
     3    1    4 1
     4    1    8 1
     5    4   32 1
     6    5    6 2
     7    5    7 1
     8    5    8 1
     9    5   12 1
    10    8   33 1
    11    8   34 1
    12    9   10 2
    13    9   11 1
    14    9   12 1
    15    9   13 1
    16   11   35 1
    17   13   14 1
    18   14   15 1
    19   14   36 1
    20   14   37 1
    21   15   16 1
    22   15   17 1
    23   15   38 1
    24   16   21 1
    25   17   18 1
    26   17   19 1
    27   17   39 1
    28   18   40 1
    29   19   20 1
    30   19   21 1
    31   19   41 1
    32   20   42 1
    33   21   22 1
    34   21   43 1
    35   22   23 ar
    36   22   31 ar
    37   23   24 ar
    38   23   44 1
    39   24   25 ar
    40   25   26 ar
    41   25   31 ar
    42   26   27 1
    43   26   28 ar
    44   27   45 1
    45   27   46 1
    46   28   29 ar
    47   28   48 1
    48   29   30 ar
    49   29   47 1
    50   30   31 ar
@<TRIPOS>SUBSTRUCTURE
     1 ACP         1 GROUP 0 A     ****
@<TRIPOS>MOLECULE
[[5-(6-amino-1,8-dihydropurine-6,8-diylium-7-id-9-yl)-3,4-dihydroxy-tetrahydrofuran-2-yl]methoxy-hydroxy-phosphoryl]oxy-[[hydroxy(oxido)phosphoryl]methyl]phosphinate
   48    50     1     0     0
SMALL
USER_CHARGES

@<TRIPOS>ATOM
      1 PG          6.9058    1.4633   -2.0295 P.3       1 ACP         1.3752
      2 O1G         7.9415    1.8189   -0.9885 O.co2     1 ACP        -0.8816
      3 O2G         5.4232    1.5294   -1.7432 O.co2     1 ACP        -0.8816
      4 O3G         7.2257    2.2732   -3.4087 O.3       1 ACP        -0.7903
      5 PB          6.2714   -1.1089   -3.9167 P.3       1 ACP         1.5257
      6 O1B         6.8953   -2.4697   -4.1256 O.co2     1 ACP        -0.8730
      7 O2B         6.0669   -0.1397   -5.0582 O.co2     1 ACP        -0.8730
      8 C3B         7.2757   -0.2431   -2.6307 C.3       1 ACP        -0.5822
      9 PA          3.5143   -2.0869   -3.3967 P.3       1 ACP         1.7803
     10 O1A         3.6810   -3.5683   -3.5713 O.2       1 ACP        -0.8736
     11 O2A         2.9125   -1.3257   -4.6915 O.3       1 ACP        -0.7984
     12 O3A         4.8811   -1.2823   -3.0877 O.3       1 ACP        -0.7763
     13 O5'         2.5233   -1.6621   -2.1894 O.3       1 ACP        -0.5927
     14 C5'         2.2816   -0.2918   -1.9206 C.3       1 ACP         0.1349
     15 C4'         2.7248    0.0226   -0.4980 C.3       1 ACP         0.1151
     16 O4'         2.4697    1.4219   -0.2462 O.3       1 ACP        -0.3857
     17 C3'         1.9404   -0.7419    0.5596 C.3       1 ACP         0.0978
     18 O3'         2.7418   -0.8086    1.7389 O.3       1 ACP        -0.5800
     19 C2'         0.7477    0.1630    0.7858 C.3       1 ACP         0.0885
     20 O2'         0.1373   -0.0577    2.0407 O.3       1 ACP        -0.5877
     21 C1'         1.3733    1.5427    0.6747 C.3       1 ACP         0.3822
     22 N9          0.4520    2.5240    0.1767 N.pl3     1 ACP        -0.4391
     23 C8         -1.0660    2.5608    0.3999 C.ar      1 ACP         0.1869
     24 N7         -1.5852    3.6333   -0.2221 N.2       1 ACP        -0.2730
     25 C5         -0.4682    4.1996   -0.7771 C.ar      1 ACP        -0.1385
     26 C6         -0.5216    5.4476   -1.5899 C.ar      1 ACP         0.4818
     27 N6         -1.6813    6.0510   -1.7982 N.pl3     1 ACP        -0.8277
     28 N1          0.6621    5.8575   -2.0523 N.pl3     1 ACP        -0.6982
     29 C2          1.8795    5.1301   -1.7717 C.ar      1 ACP         0.6213
     30 N3          1.9458    4.0434   -1.0670 N.ar      1 ACP        -0.5099
     31 C4          0.7388    3.6199   -0.5917 C.ar      1 ACP         0.2813
     32 HOG3        7.2321    3.2538   -3.3845 H         1 ACP         0.4118
     33 H3B1        7.2820   -0.8865   -1.7450 H         1 ACP         0.0929
     34 H3B2        8.3016   -0.2199   -3.0156 H         1 ACP         0.0929
     35 HOA2        2.0268   -1.5842   -5.0242 H         1 ACP         0.4544
     36 H5'1        2.8428    0.3151   -2.6386 H         1 ACP         0.0887
     37 H5'2        1.2124   -0.0895   -2.0416 H         1 ACP         0.0887
     38 H4'         3.8046   -0.1390   -0.4012 H         1 ACP         0.1198
     39 H3'         1.6786   -1.7628    0.2719 H         1 ACP         0.0796
     40 HO3'        3.5553   -1.2733    1.4913 H         1 ACP         0.4356
     41 H2'         0.0002   -0.0084   -0.0014 H         1 ACP         0.0714
     42 HO2'       -0.1554   -0.9852    2.0577 H         1 ACP         0.4430
     43 H1'         1.7718    1.9211    1.6015 H         1 ACP         0.1194
     44 H8         -1.7235    1.8833    0.9537 H         1 ACP         0.2736
     45 HN61       -2.5296    5.6672   -1.4072 H         1 ACP         0.4770
     46 HN62       -1.7205    6.8969   -2.3483 H         1 ACP         0.4770
     47 H2          2.7750    5.5878   -2.2190 H         1 ACP         0.0919
     48 H48         0.6808    6.7046   -2.6128 H         1 ACP         0.4736
@<TRIPOS>BOND
     1    1    2 2
     2    1    3 1
     3    1    4 1
     4    1    8 1
     5    4   32 1
     6    5    6 2
     7    5    7 1
     8    5    8 1
     9    5   12 1
    10    8   33 1
    11    8   34 1
    12    9   10 2
    13    9   11 1
    14    9   12 1
    15    9   13 1
    16   11   35 1
    17   13   14 1
    18   14   15 1
    19   14   36 1
    20   14   37 1
    21   15   16 1
    22   15   17 1
    23   15   38 1
    24   16   21 1
    25   17   18 1
    26   17   19 1
    27   17   39 1
    28   18   40 1
    29   19   20 1
    30   19   21 1
    31   19   41 1
    32   20   42 1
    33   21   22 1
    34   21   43 1
    35   22   23 ar
    36   22   31 ar
    37   23   24 ar
    38   23   44 1
    39   24   25 ar
    40   25   26 ar
    41   25   31 ar
    42   26   27 1
    43   26   28 ar
    44   27   45 1
    45   27   46 1
    46   28   29 ar
    47   28   48 1
    48   29   30 ar
    49   29   47 1
    50   30   31 ar
@<TRIPOS>SUBSTRUCTURE
     1 ACP         1 GROUP 0 A     ****
@<TRIPOS>MOLECULE
[[5-(6-amino-1,8-dihydropurine-6,8-diylium-7-id-9-yl)-3,4-dihydroxy-tetrahydrofuran-2-yl]methoxy-hydroxy-phosphoryl]oxy-[[hydroxy(oxido)phosphoryl]methyl]phosphinate
   48    50     1     0     0
SMALL
USER_CHARGES

@<TRIPOS>ATOM
      1 PG         -1.0911   -4.9486    8.1934 P.3       1 ACP         1.3752
      2 O1G         0.0631   -5.6197    8.9007 O.co2     1 ACP        -0.8816
      3 O2G        -2.1825   -5.7385    7.5084 O.co2     1 ACP        -0.8816
      4 O3G        -1.7661   -3.8454    9.1874 O.3       1 ACP        -0.7903
      5 PB         -1.4214   -2.7361    5.8321 P.3       1 ACP         1.5257
      6 O1B        -0.4743   -1.9352    4.9684 O.co2     1 ACP        -0.8730
      7 O2B        -2.4757   -2.0736    6.6889 O.co2     1 ACP        -0.8730
      8 C3B        -0.3856   -3.7855    6.9446 C.3       1 ACP        -0.5822
      9 PA         -3.0213   -3.8721    3.6009 P.3       1 ACP         1.7803
     10 O1A        -4.3176   -3.1304    3.7500 O.2       1 ACP        -0.8736
     11 O2A        -3.1868   -5.4347    3.2149 O.3       1 ACP        -0.7984
     12 O3A        -2.1032   -3.9073    4.9301 O.3       1 ACP        -0.7763
     13 O5'        -2.0396   -3.2818    2.4572 O.3       1 ACP        -0.5927
     14 C5'        -0.7840   -3.8935    2.2172 C.3       1 ACP         0.1349
     15 C4'        -0.0724   -3.1466    1.1027 C.3       1 ACP         0.1151
     16 O4'        -0.8674   -3.1929   -0.0945 O.3       1 ACP        -0.3857
     17 C3'         0.1338   -1.6715    1.4027 C.3       1 ACP         0.0978
     18 O3'         1.2893   -1.4445    2.1808 O.3       1 ACP        -0.5800
     19 C2'         0.2158   -1.0724    0.0128 C.3       1 ACP         0.0885
     20 O2'         1.5141   -1.2448   -0.5513 O.3       1 ACP        -0.5877
     21 C1'        -0.7897   -1.9176   -0.7583 C.3       1 ACP         0.3822
     22 N9         -2.1040   -1.3333   -0.7704 N.pl3     1 ACP        -0.4391
     23 C8         -3.3877   -1.9383   -0.1859 C.ar      1 ACP         0.1869
     24 N7         -4.4144   -1.0952   -0.3898 N.2       1 ACP        -0.2730
     25 C5         -3.7988   -0.0622   -1.0459 C.ar      1 ACP        -0.1385
     26 C6         -4.5350    1.1514   -1.4997 C.ar      1 ACP         0.4818
     27 N6         -5.8346    1.2592   -1.2722 N.pl3     1 ACP        -0.8277
     28 N1         -3.7771    2.0576   -2.1221 N.pl3     1 ACP        -0.6982
     29 C2         -2.3607    1.8514   -2.3252 C.ar      1 ACP         0.6213
     30 N3         -1.7031    0.8030   -1.9377 N.ar      1 ACP        -0.5099
     31 C4         -2.4728   -0.1265   -1.3008 C.ar      1 ACP         0.2813
     32 HOG3       -2.1379   -4.1514   10.0419 H         1 ACP         0.4118
     33 H3B1        0.2669   -4.3842    6.3010 H         1 ACP         0.0929
     34 H3B2        0.2595   -3.0926    7.4968 H         1 ACP         0.0929
     35 HOA2       -3.6802   -6.0239    3.8245 H         1 ACP         0.4544
     36 H5'1       -0.1918   -3.8613    3.1375 H         1 ACP         0.0887
     37 H5'2       -0.9465   -4.9386    1.9341 H         1 ACP         0.0887
     38 H4'         0.8883   -3.6448    0.8784 H         1 ACP         0.1198
     39 H3'        -0.7368   -1.2358    1.9871 H         1 ACP         0.0796
     40 HO3'        1.1625   -1.9325    3.0084 H         1 ACP         0.4356
     41 H2'        -0.0343   -0.0280    0.0196 H         1 ACP         0.0714
     42 HO2'        2.1443   -0.7955    0.0378 H         1 ACP         0.4430
     43 H1'        -0.5175   -2.1046   -1.7826 H         1 ACP         0.1194
     44 H8         -3.5590   -2.8873    0.3318 H         1 ACP         0.2736
     45 HN61       -6.3278    0.5206   -0.7915 H         1 ACP         0.4770
     46 HN62       -6.3361    2.0806   -1.5783 H         1 ACP         0.4770
     47 H2         -1.8692    2.6833   -2.8525 H         1 ACP         0.0919
     48 H48        -4.2310    2.9046   -2.4517 H         1 ACP         0.4736
@<TRIPOS>BOND
     1    1    2 2
     2    1    3 1
     3    1    4 1
     4    1    8 1
     5    4   32 1
     6    5    6 2
     7    5    7 1
     8    5    8 1
     9    5   12 1
    10    8   33 1
    11    8   34 1
    12    9   10 2
    13    9   11 1
    14    9   12 1
    15    9   13 1
    16   11   35 1
    17   13   14 1
    18   14   15 1
    19   14   36 1
    20   14   37 1
    21   15   16 1
    22   15   17 1
    23   15   38 1
    24   16   21 1
    25   17   18 1
    26   17   19 1
    27   17   39 1
    28   18   40 1
    29   19   20 1
    30   19   21 1
    31   19   41 1
    32   20   42 1
    33   21   22 1
    34   21   43 1
    35   22   23 ar
    36   22   31 ar
    37   23   24 ar
    38   23   44 1
    39   24   25 ar
    40   25   26 ar
    41   25   31 ar
    42   26   27 1
    43   26   28 ar
    44   27   45 1
    45   27   46 1
    46   28   29 ar
    47   28   48 1
    48   29   30 ar
    49   29   47 1
    50   30   31 ar
@<TRIPOS>SUBSTRUCTURE
     1 ACP         1 GROUP 0 A     ****
@<TRIPOS>MOLECULE
[[5-(6-amino-1,8-dihydropurine-6,8-diylium-7-id-9-yl)-3,4-dihydroxy-tetrahydrofuran-2-yl]methoxy-hydroxy-phosphoryl]oxy-[[hydroxy(oxido)phosphoryl]methyl]phosphinate
   48    50     1     0     0
SMALL
USER_CHARGES

@<TRIPOS>ATOM
      1 PG          2.4936   -4.7412   -4.0731 P.3       1 ACP         1.3752
      2 O1G         2.5348   -6.1689   -3.5803 O.co2     1 ACP        -0.8816
      3 O2G         3.0293   -3.5916   -3.2511 O.co2     1 ACP        -0.8816
      4 O3G         3.1239   -4.6699   -5.5758 O.3       1 ACP        -0.7903
      5 PB          0.1994   -2.7021   -5.1494 P.3       1 ACP         1.5257
      6 O1B        -1.2936   -2.7828   -5.3707 O.co2     1 ACP        -0.8730
      7 O2B         1.1520   -2.3180   -6.2582 O.co2     1 ACP        -0.8730
      8 C3B         0.7414   -4.3442   -4.5001 C.3       1 ACP        -0.5822
      9 PA          0.1505   -0.2565   -3.4626 P.3       1 ACP         1.7803
     10 O1A        -1.3126    0.0783   -3.4578 O.2       1 ACP        -0.8736
     11 O2A         1.0262    0.5928   -4.5255 O.3       1 ACP        -0.7984
     12 O3A         0.4938   -1.7915   -3.8325 O.3       1 ACP        -0.7763
     13 O5'         0.8979   -0.0136   -2.0475 O.3       1 ACP        -0.5927
     14 C5'         2.2816   -0.2918   -1.9206 C.3       1 ACP         0.1349
     15 C4'         2.7248    0.0226   -0.4980 C.3       1 ACP         0.1151
     16 O4'         2.4697    1.4219   -0.2462 O.3       1 ACP        -0.3857
     17 C3'         1.9404   -0.7419    0.5596 C.3       1 ACP         0.0978
     18 O3'         2.7418   -0.8086    1.7389 O.3       1 ACP        -0.5800
     19 C2'         0.7477    0.1630    0.7858 C.3       1 ACP         0.0885
     20 O2'         0.1373   -0.0577    2.0407 O.3       1 ACP        -0.5877
     21 C1'         1.3733    1.5427    0.6747 C.3       1 ACP         0.3822
     22 N9          0.4520    2.5240    0.1767 N.pl3     1 ACP        -0.4391
     23 C8          0.1798    2.8712   -1.2933 C.ar      1 ACP         0.1869
     24 N7         -0.7494    3.8400   -1.3610 N.2       1 ACP        -0.2730
     25 C5         -1.0173    4.0603   -0.0358 C.ar      1 ACP        -0.1385
     26 C6         -2.0105    5.0717    0.4241 C.ar      1 ACP         0.4818
     27 N6         -2.6723    5.7982   -0.4628 N.pl3     1 ACP        -0.8277
     28 N1         -2.1445    5.1522    1.7502 N.pl3     1 ACP        -0.6982
     29 C2         -1.3755    4.3143    2.6427 C.ar      1 ACP         0.6213
     30 N3         -0.5075    3.4292    2.2616 N.ar      1 ACP        -0.5099
     31 C4         -0.3667    3.3425    0.9070 C.ar      1 ACP         0.2813
     32 HOG3        4.0532   -4.9550   -5.7072 H         1 ACP         0.4118
     33 H3B1        0.1532   -4.5397   -3.5978 H         1 ACP         0.0929
     34 H3B2        0.4310   -5.0812   -5.2495 H         1 ACP         0.0929
     35 HOA2        0.8075    0.5276   -5.4795 H         1 ACP         0.4544
     36 H5'1        2.4537   -1.3486   -2.1497 H         1 ACP         0.0887
     37 H5'2        2.8347    0.3231   -2.6381 H         1 ACP         0.0887
     38 H4'         3.8046   -0.1390   -0.4012 H         1 ACP         0.1198
     39 H3'         1.6786   -1.7628    0.2719 H         1 ACP         0.0796
     40 HO3'        2.2231   -1.2979    2.3952 H         1 ACP         0.4356
     41 H2'         0.0002   -0.0084   -0.0014 H         1 ACP         0.0714
     42 HO2'       -0.6132    0.5577    2.1063 H         1 ACP         0.4430
     43 H1'         1.7718    1.9211    1.6015 H         1 ACP         0.1194
     44 H8          0.6089    2.4651   -2.2147 H         1 ACP         0.2736
     45 HN61       -2.5055    5.6680   -1.4503 H         1 ACP         0.4770
     46 HN62       -3.3462    6.4841   -0.1542 H         1 ACP         0.4770
     47 H2         -1.5932    4.4937    3.7066 H         1 ACP         0.0919
     48 H48        -2.8098    5.8270    2.1160 H         1 ACP         0.4736
@<TRIPOS>BOND
     1    1    2 2
     2    1    3 1
     3    1    4 1
     4    1    8 1
     5    4   32 1
     6    5    6 2
     7    5    7 1
     8    5    8 1
     9    5   12 1
    10    8   33 1
    11    8   34 1
    12    9   10 2
    13    9   11 1
    14    9   12 1
    15    9   13 1
    16   11   35 1
    17   13   14 1
    18   14   15 1
    19   14   36 1
    20   14   37 1
    21   15   16 1
    22   15   17 1
    23   15   38 1
    24   16   21 1
    25   17   18 1
    26   17   19 1
    27   17   39 1
    28   18   40 1
    29   19   20 1
    30   19   21 1
    31   19   41 1
    32   20   42 1
    33   21   22 1
    34   21   43 1
    35   22   23 ar
    36   22   31 ar
    37   23   24 ar
    38   23   44 1
    39   24   25 ar
    40   25   26 ar
    41   25   31 ar
    42   26   27 1
    43   26   28 ar
    44   27   45 1
    45   27   46 1
    46   28   29 ar
    47   28   48 1
    48   29   30 ar
    49   29   47 1
    50   30   31 ar
@<TRIPOS>SUBSTRUCTURE
     1 ACP         1 GROUP 0 A     ****
@<TRIPOS>MOLECULE
[[5-(6-amino-1,8-dihydropurine-6,8-diylium-7-id-9-yl)-3,4-dihydroxy-tetrahydrofuran-2-yl]methoxy-hydroxy-phosphoryl]oxy-[[hydroxy(oxido)phosphoryl]methyl]phosphinate
   48    50     1     0     0
SMALL
USER_CHARGES

@<TRIPOS>ATOM
      1 PG         -1.2492    1.0110   -4.8086 P.3       1 ACP         1.3752
      2 O1G        -1.2850    2.0582   -5.8971 O.co2     1 ACP        -0.8816
      3 O2G        -0.3319    1.1258   -3.6129 O.co2     1 ACP        -0.8816
      4 O3G        -2.7686    0.7118   -4.2964 O.3       1 ACP        -0.7903
      5 PB         -0.7776   -2.2044   -4.6690 P.3       1 ACP         1.5257
      6 O1B        -0.4983   -3.2953   -5.6772 O.co2     1 ACP        -0.8730
      7 O2B        -1.9559   -2.2712   -3.7248 O.co2     1 ACP        -0.8730
      8 C3B        -0.9118   -0.6193   -5.6079 C.3       1 ACP        -0.5822
      9 PA          1.2934   -2.6382   -2.5830 P.3       1 ACP         1.7803
     10 O1A         1.6893   -4.0627   -2.8416 O.2       1 ACP        -0.8736
     11 O2A         0.2334   -2.4486   -1.3754 O.3       1 ACP        -0.7984
     12 O3A         0.5822   -1.8950   -3.8292 O.3       1 ACP        -0.7763
     13 O5'         2.5233   -1.6621   -2.1894 O.3       1 ACP        -0.5927
     14 C5'         2.2816   -0.2918   -1.9206 C.3       1 ACP         0.1349
     15 C4'         2.7248    0.0226   -0.4980 C.3       1 ACP         0.1151
     16 O4'         2.4697    1.4219   -0.2462 O.3       1 ACP        -0.3857
     17 C3'         1.9404   -0.7419    0.5596 C.3       1 ACP         0.0978
     18 O3'         2.7418   -0.8086    1.7389 O.3       1 ACP        -0.5800
     19 C2'         0.7477    0.1630    0.7858 C.3       1 ACP         0.0885
     20 O2'         0.1373   -0.0577    2.0407 O.3       1 ACP        -0.5877
     21 C1'         1.3733    1.5427    0.6747 C.3       1 ACP         0.3822
     22 N9          0.4520    2.5240    0.1767 N.pl3     1 ACP        -0.4391
     23 C8          0.5793    3.3338   -1.1209 C.ar      1 ACP         0.1869
     24 N7         -0.4807    4.1508   -1.2458 N.2       1 ACP        -0.2730
     25 C5         -1.1921    3.8572   -0.1126 C.ar      1 ACP        -0.1385
     26 C6         -2.4855    4.5203    0.2163 C.ar      1 ACP         0.4818
     27 N6         -2.9873    5.4319   -0.6020 N.pl3     1 ACP        -0.8277
     28 N1         -3.0414    4.1119    1.3596 N.pl3     1 ACP        -0.6982
     29 C2         -2.4169    3.1071    2.1904 C.ar      1 ACP         0.6213
     30 N3         -1.2928    2.5191    1.9210 N.ar      1 ACP        -0.5099
     31 C4         -0.7202    2.9326    0.7534 C.ar      1 ACP         0.2813
     32 HOG3       -3.2884    1.4520   -3.9168 H         1 ACP         0.4118
     33 H3B1        0.0219   -0.5002   -6.1668 H         1 ACP         0.0929
     34 H3B2       -1.7079   -0.7730   -6.3452 H         1 ACP         0.0929
     35 HOA2       -0.6421   -2.8862   -1.4401 H         1 ACP         0.4544
     36 H5'1        2.8428    0.3151   -2.6386 H         1 ACP         0.0887
     37 H5'2        1.2124   -0.0895   -2.0416 H         1 ACP         0.0887
     38 H4'         3.8046   -0.1390   -0.4012 H         1 ACP         0.1198
     39 H3'         1.6786   -1.7628    0.2719 H         1 ACP         0.0796
     40 HO3'        2.2231   -1.2979    2.3952 H         1 ACP         0.4356
     41 H2'         0.0002   -0.0084   -0.0014 H         1 ACP         0.0714
     42 HO2'       -0.1554   -0.9852    2.0577 H         1 ACP         0.4430
     43 H1'         1.7718    1.9211    1.6015 H         1 ACP         0.1194
     44 H8          1.3565    3.3309   -1.8916 H         1 ACP         0.2736
     45 HN61       -2.4952    5.6785   -1.4487 H         1 ACP         0.4770
     46 HN62       -3.8637    5.8828   -0.3819 H         1 ACP         0.4770
     47 H2         -2.9911    2.8734    3.1000 H         1 ACP         0.0919
     48 H48        -3.9253    4.5332    1.6302 H         1 ACP         0.4736
@<TRIPOS>BOND
     1    1    2 2
     2    1    3 1
     3    1    4 1
     4    1    8 1
     5    4   32 1
     6    5    6 2
     7    5    7 1
     8    5    8 1
     9    5   12 1
    10    8   33 1
    11    8   34 1
    12    9   10 2
    13    9   11 1
    14    9   12 1
    15    9   13 1
    16   11   35 1
    17   13   14 1
    18   14   15 1
    19   14   36 1
    20   14   37 1
    21   15   16 1
    22   15   17 1
    23   15   38 1
    24   16   21 1
    25   17   18 1
    26   17   19 1
    27   17   39 1
    28   18   40 1
    29   19   20 1
    30   19   21 1
    31   19   41 1
    32   20   42 1
    33   21   22 1
    34   21   43 1
    35   22   23 ar
    36   22   31 ar
    37   23   24 ar
    38   23   44 1
    39   24   25 ar
    40   25   26 ar
    41   25   31 ar
    42   26   27 1
    43   26   28 ar
    44   27   45 1
    45   27   46 1
    46   28   29 ar
    47   28   48 1
    48   29   30 ar
    49   29   47 1
    50   30   31 ar
@<TRIPOS>SUBSTRUCTURE
     1 ACP         1 GROUP 0 A     ****
@<TRIPOS>MOLECULE
[[5-(6-amino-1,8-dihydropurine-6,8-diylium-7-id-9-yl)-3,4-dihydroxy-tetrahydrofuran-2-yl]methoxy-hydroxy-phosphoryl]oxy-[[hydroxy(oxido)phosphoryl]methyl]phosphinate
   48    50     1     0     0
SMALL
USER_CHARGES

@<TRIPOS>ATOM
      1 PG          4.9961    1.9445   -5.5540 P.3       1 ACP         1.3752
      2 O1G         5.9525    3.0934   -5.3342 O.co2     1 ACP        -0.8816
      3 O2G         3.6757    1.8475   -4.8250 O.co2     1 ACP        -0.8816
      4 O3G         4.7449    1.7490   -7.1537 O.3       1 ACP        -0.7903
      5 PB          5.1558   -1.2996   -5.3806 P.3       1 ACP         1.5257
      6 O1B         6.2305   -2.3071   -5.0423 O.co2     1 ACP        -0.8730
      7 O2B         4.4046   -1.3423   -6.6915 O.co2     1 ACP        -0.8730
      8 C3B         5.9182    0.3766   -5.2357 C.3       1 ACP        -0.5822
      9 PA          2.8566   -2.1437   -3.6985 P.3       1 ACP         1.7803
     10 O1A         3.0912   -3.6192   -3.8419 O.2       1 ACP        -0.8736
     11 O2A         1.6238   -1.5751   -4.5786 O.3       1 ACP        -0.7984
     12 O3A         4.0996   -1.2128   -4.1449 O.3       1 ACP        -0.7763
     13 O5'         2.5233   -1.6621   -2.1894 O.3       1 ACP        -0.5927
     14 C5'         2.2816   -0.2918   -1.9206 C.3       1 ACP         0.1349
     15 C4'         2.7248    0.0226   -0.4980 C.3       1 ACP         0.1151
     16 O4'         2.4697    1.4219   -0.2462 O.3       1 ACP        -0.3857
     17 C3'         1.9404   -0.7419    0.5596 C.3       1 ACP         0.0978
     18 O3'         2.7418   -0.8086    1.7389 O.3       1 ACP        -0.5800
     19 C2'         0.7477    0.1630    0.7858 C.3       1 ACP         0.0885
     20 O2'         0.1373   -0.0577    2.0407 O.3       1 ACP        -0.5877
     21 C1'         1.3733    1.5427    0.6747 C.3       1 ACP         0.3822
     22 N9          0.4520    2.5240    0.1767 N.pl3     1 ACP        -0.4391
     23 C8         -1.0660    2.5608    0.3999 C.ar      1 ACP         0.1869
     24 N7         -1.5852    3.6333   -0.2221 N.2       1 ACP        -0.2730
     25 C5         -0.4682    4.1996   -0.7771 C.ar      1 ACP        -0.1385
     26 C6         -0.5216    5.4476   -1.5899 C.ar      1 ACP         0.4818
     27 N6         -1.6813    6.0510   -1.7982 N.pl3     1 ACP        -0.8277
     28 N1          0.6621    5.8575   -2.0523 N.pl3     1 ACP        -0.6982
     29 C2          1.8795    5.1301   -1.7717 C.ar      1 ACP         0.6213
     30 N3          1.9458    4.0434   -1.0670 N.ar      1 ACP        -0.5099
     31 C4          0.7388    3.6199   -0.5917 C.ar      1 ACP         0.2813
     32 HOG3        4.3624    2.4959   -7.6618 H         1 ACP         0.4118
     33 H3B1        6.3200    0.4569   -4.2205 H         1 ACP         0.0929
     34 H3B2        6.7750    0.3773   -5.9191 H         1 ACP         0.0929
     35 HOA2        1.6521   -1.6747   -5.5540 H         1 ACP         0.4544
     36 H5'1        2.8428    0.3151   -2.6386 H         1 ACP         0.0887
     37 H5'2        1.2124   -0.0895   -2.0416 H         1 ACP         0.0887
     38 H4'         3.8046   -0.1390   -0.4012 H         1 ACP         0.1198
     39 H3'         1.6786   -1.7628    0.2719 H         1 ACP         0.0796
     40 HO3'        2.2231   -1.2979    2.3952 H         1 ACP         0.4356
     41 H2'         0.0002   -0.0084   -0.0014 H         1 ACP         0.0714
     42 HO2'       -0.1554   -0.9852    2.0577 H         1 ACP         0.4430
     43 H1'         1.7718    1.9211    1.6015 H         1 ACP         0.1194
     44 H8         -1.7235    1.8833    0.9537 H         1 ACP         0.2736
     45 HN61       -2.5296    5.6672   -1.4072 H         1 ACP         0.4770
     46 HN62       -1.7205    6.8969   -2.3483 H         1 ACP         0.4770
     47 H2          2.7750    5.5878   -2.2190 H         1 ACP         0.0919
     48 H48         0.6808    6.7046   -2.6128 H         1 ACP         0.4736
@<TRIPOS>BOND
     1    1    2 2
     2    1    3 1
     3    1    4 1
     4    1    8 1
     5    4   32 1
     6    5    6 2
     7    5    7 1
     8    5    8 1
     9    5   12 1
    10    8   33 1
    11    8   34 1
    12    9   10 2
    13    9   11 1
    14    9   12 1
    15    9   13 1
    16   11   35 1
    17   13   14 1
    18   14   15 1
    19   14   36 1
    20   14   37 1
    21   15   16 1
    22   15   17 1
    23   15   38 1
    24   16   21 1
    25   17   18 1
    26   17   19 1
    27   17   39 1
    28   18   40 1
    29   19   20 1
    30   19   21 1
    31   19   41 1
    32   20   42 1
    33   21   22 1
    34   21   43 1
    35   22   23 ar
    36   22   31 ar
    37   23   24 ar
    38   23   44 1
    39   24   25 ar
    40   25   26 ar
    41   25   31 ar
    42   26   27 1
    43   26   28 ar
    44   27   45 1
    45   27   46 1
    46   28   29 ar
    47   28   48 1
    48   29   30 ar
    49   29   47 1
    50   30   31 ar
@<TRIPOS>SUBSTRUCTURE
     1 ACP         1 GROUP 0 A     ****
@<TRIPOS>MOLECULE
[[5-(6-amino-1,8-dihydropurine-6,8-diylium-7-id-9-yl)-3,4-dihydroxy-tetrahydrofuran-2-yl]methoxy-hydroxy-phosphoryl]oxy-[[hydroxy(oxido)phosphoryl]methyl]phosphinate
   48    50     1     0     0
SMALL
USER_CHARGES

@<TRIPOS>ATOM
      1 PG          0.9143   -4.3740   -5.9594 P.3       1 ACP         1.3752
      2 O1G        -0.4092   -5.0861   -5.8049 O.co2     1 ACP        -0.8816
      3 O2G         2.1119   -4.7087   -5.1004 O.co2     1 ACP        -0.8816
      4 O3G         1.3556   -4.3884   -7.5296 O.3       1 ACP        -0.7903
      5 PB          1.9303   -1.2845   -5.9040 P.3       1 ACP         1.5257
      6 O1B         1.2705    0.0615   -5.7105 O.co2     1 ACP        -0.8730
      7 O2B         2.7552   -1.6014   -7.1302 O.co2     1 ACP        -0.8730
      8 C3B         0.6014   -2.5622   -5.7874 C.3       1 ACP        -0.5822
      9 PA          4.0021   -0.9408   -3.8020 P.3       1 ACP         1.7803
     10 O1A         5.0476   -0.3570   -4.7069 O.2       1 ACP        -0.8736
     11 O2A         4.5506   -2.0869   -2.8003 O.3       1 ACP        -0.7984
     12 O3A         2.7726   -1.6621   -4.5630 O.3       1 ACP        -0.7763
     13 O5'         3.2872    0.1331   -2.8242 O.3       1 ACP        -0.5927
     14 C5'         2.2816   -0.2918   -1.9206 C.3       1 ACP         0.1349
     15 C4'         2.7248    0.0226   -0.4980 C.3       1 ACP         0.1151
     16 O4'         2.4697    1.4219   -0.2462 O.3       1 ACP        -0.3857
     17 C3'         1.9404   -0.7419    0.5596 C.3       1 ACP         0.0978
     18 O3'         2.7418   -0.8086    1.7389 O.3       1 ACP        -0.5800
     19 C2'         0.7477    0.1630    0.7858 C.3       1 ACP         0.0885
     20 O2'         0.1373   -0.0577    2.0407 O.3       1 ACP        -0.5877
     21 C1'         1.3733    1.5427    0.6747 C.3       1 ACP         0.3822
     22 N9          0.4520    2.5240    0.1767 N.pl3     1 ACP        -0.4391
     23 C8         -0.7463    2.2774   -0.7501 C.ar      1 ACP         0.1869
     24 N7         -1.3714    3.4419   -0.9948 N.2       1 ACP        -0.2730
     25 C5         -0.6104    4.3223   -0.2722 C.ar      1 ACP        -0.1385
     26 C6         -0.9062    5.7820   -0.2194 C.ar      1 ACP         0.4818
     27 N6         -1.9385    6.2713   -0.8881 N.pl3     1 ACP        -0.8277
     28 N1         -0.0613    6.4906    0.5336 N.pl3     1 ACP        -0.6982
     29 C2          1.0416    5.8662    1.2291 C.ar      1 ACP         0.6213
     30 N3          1.3146    4.5989    1.1954 N.ar      1 ACP        -0.5099
     31 C4          0.4541    3.8697    0.4273 C.ar      1 ACP         0.2813
     32 HOG3        1.4826   -5.2547   -7.9718 H         1 ACP         0.4118
     33 H3B1        0.1125   -2.4254   -4.8175 H         1 ACP         0.0929
     34 H3B2       -0.1350   -2.3010   -6.5558 H         1 ACP         0.0929
     35 HOA2        5.2577   -1.8581   -2.1600 H         1 ACP         0.4544
     36 H5'1        1.3493    0.2322   -2.1551 H         1 ACP         0.0887
     37 H5'2        2.1259   -1.3686   -2.0434 H         1 ACP         0.0887
     38 H4'         3.8046   -0.1390   -0.4012 H         1 ACP         0.1198
     39 H3'         1.6786   -1.7628    0.2719 H         1 ACP         0.0796
     40 HO3'        2.2231   -1.2979    2.3952 H         1 ACP         0.4356
     41 H2'         0.0002   -0.0084   -0.0014 H         1 ACP         0.0714
     42 HO2'       -0.6132    0.5577    2.1063 H         1 ACP         0.4430
     43 H1'         1.7718    1.9211    1.6015 H         1 ACP         0.1194
     44 H8         -1.1244    1.3534   -1.1987 H         1 ACP         0.2736
     45 HN61       -2.5259    5.6573   -1.4336 H         1 ACP         0.4770
     46 HN62       -2.1416    7.2600   -0.8539 H         1 ACP         0.4770
     47 H2          1.6509    6.5764    1.8088 H         1 ACP         0.0919
     48 H48        -0.2190    7.4917    0.6033 H         1 ACP         0.4736
@<TRIPOS>BOND
     1    1    2 2
     2    1    3 1
     3    1    4 1
     4    1    8 1
     5    4   32 1
     6    5    6 2
     7    5    7 1
     8    5    8 1
     9    5   12 1
    10    8   33 1
    11    8   34 1
    12    9   10 2
    13    9   11 1
    14    9   12 1
    15    9   13 1
    16   11   35 1
    17   13   14 1
    18   14   15 1
    19   14   36 1
    20   14   37 1
    21   15   16 1
    22   15   17 1
    23   15   38 1
    24   16   21 1
    25   17   18 1
    26   17   19 1
    27   17   39 1
    28   18   40 1
    29   19   20 1
    30   19   21 1
    31   19   41 1
    32   20   42 1
    33   21   22 1
    34   21   43 1
    35   22   23 ar
    36   22   31 ar
    37   23   24 ar
    38   23   44 1
    39   24   25 ar
    40   25   26 ar
    41   25   31 ar
    42   26   27 1
    43   26   28 ar
    44   27   45 1
    45   27   46 1
    46   28   29 ar
    47   28   48 1
    48   29   30 ar
    49   29   47 1
    50   30   31 ar
@<TRIPOS>SUBSTRUCTURE
     1 ACP         1 GROUP 0 A     ****
@<TRIPOS>MOLECULE
[[5-(6-amino-1,8-dihydropurine-6,8-diylium-7-id-9-yl)-3,4-dihydroxy-tetrahydrofuran-2-yl]methoxy-hydroxy-phosphoryl]oxy-[[hydroxy(oxido)phosphoryl]methyl]phosphinate
   48    50     1     0     0
SMALL
USER_CHARGES

@<TRIPOS>ATOM
      1 PG          2.7920   -3.9538   -6.9813 P.3       1 ACP         1.3752
      2 O1G         2.1102   -5.2920   -7.1462 O.co2     1 ACP        -0.8816
      3 O2G         4.0478   -3.7879   -6.1568 O.co2     1 ACP        -0.8816
      4 O3G         3.0164   -3.2772   -8.4484 O.3       1 ACP        -0.7903
      5 PB          1.9167   -0.9906   -5.9647 P.3       1 ACP         1.5257
      6 O1B         0.6412   -0.3627   -5.4515 O.co2     1 ACP        -0.8730
      7 O2B         2.6584   -0.4327   -7.1576 O.co2     1 ACP        -0.8730
      8 C3B         1.5416   -2.7626   -6.3272 C.3       1 ACP        -0.5822
      9 PA          3.9484   -0.1820   -3.9530 P.3       1 ACP         1.7803
     10 O1A         4.6731    0.7855   -4.8427 O.2       1 ACP        -0.8736
     11 O2A         4.9159   -1.1727   -3.1161 O.3       1 ACP        -0.7984
     12 O3A         2.9484   -1.1921   -4.7216 O.3       1 ACP        -0.7763
     13 O5'         3.0189    0.5129   -2.8246 O.3       1 ACP        -0.5927
     14 C5'         2.2816   -0.2918   -1.9206 C.3       1 ACP         0.1349
     15 C4'         2.7248    0.0226   -0.4980 C.3       1 ACP         0.1151
     16 O4'         2.4697    1.4219   -0.2462 O.3       1 ACP        -0.3857
     17 C3'         1.9404   -0.7419    0.5596 C.3       1 ACP         0.0978
     18 O3'         2.7418   -0.8086    1.7389 O.3       1 ACP        -0.5800
     19 C2'         0.7477    0.1630    0.7858 C.3       1 ACP         0.0885
     20 O2'         0.1373   -0.0577    2.0407 O.3       1 ACP        -0.5877
     21 C1'         1.3733    1.5427    0.6747 C.3       1 ACP         0.3822
     22 N9          0.4520    2.5240    0.1767 N.pl3     1 ACP        -0.4391
     23 C8         -1.0660    2.5608    0.3999 C.ar      1 ACP         0.1869
     24 N7         -1.5852    3.6333   -0.2221 N.2       1 ACP        -0.2730
     25 C5         -0.4682    4.1996   -0.7771 C.ar      1 ACP        -0.1385
     26 C6         -0.5216    5.4476   -1.5899 C.ar      1 ACP         0.4818
     27 N6         -1.6813    6.0510   -1.7982 N.pl3     1 ACP        -0.8277
     28 N1          0.6621    5.8575   -2.0523 N.pl3     1 ACP        -0.6982
     29 C2          1.8795    5.1301   -1.7717 C.ar      1 ACP         0.6213
     30 N3          1.9458    4.0434   -1.0670 N.ar      1 ACP        -0.5099
     31 C4          0.7388    3.6199   -0.5917 C.ar      1 ACP         0.2813
     32 HOG3        3.5616   -3.7583   -9.1068 H         1 ACP         0.4118
     33 H3B1        1.1532   -3.2014   -5.4025 H         1 ACP         0.0929
     34 H3B2        0.7160   -2.7538   -7.0478 H         1 ACP         0.0929
     35 HOA2        5.5191   -1.7715   -3.6058 H         1 ACP         0.4544
     36 H5'1        1.2148   -0.0787   -2.0445 H         1 ACP         0.0887
     37 H5'2        2.4640   -1.3460   -2.1537 H         1 ACP         0.0887
     38 H4'         3.8046   -0.1390   -0.4012 H         1 ACP         0.1198
     39 H3'         1.6786   -1.7628    0.2719 H         1 ACP         0.0796
     40 HO3'        2.2231   -1.2979    2.3952 H         1 ACP         0.4356
     41 H2'         0.0002   -0.0084   -0.0014 H         1 ACP         0.0714
     42 HO2'       -0.1554   -0.9852    2.0577 H         1 ACP         0.4430
     43 H1'         1.7718    1.9211    1.6015 H         1 ACP         0.1194
     44 H8         -1.7235    1.8833    0.9537 H         1 ACP         0.2736
     45 HN61       -2.5296    5.6672   -1.4072 H         1 ACP         0.4770
     46 HN62       -1.7205    6.8969   -2.3483 H         1 ACP         0.4770
     47 H2          2.7750    5.5878   -2.2190 H         1 ACP         0.0919
     48 H48         0.6808    6.7046   -2.6128 H         1 ACP         0.4736
@<TRIPOS>BOND
     1    1    2 2
     2    1    3 1
     3    1    4 1
     4    1    8 1
     5    4   32 1
     6    5    6 2
     7    5    7 1
     8    5    8 1
     9    5   12 1
    10    8   33 1
    11    8   34 1
    12    9   10 2
    13    9   11 1
    14    9   12 1
    15    9   13 1
    16   11   35 1
    17   13   14 1
    18   14   15 1
    19   14   36 1
    20   14   37 1
    21   15   16 1
    22   15   17 1
    23   15   38 1
    24   16   21 1
    25   17   18 1
    26   17   19 1
    27   17   39 1
    28   18   40 1
    29   19   20 1
    30   19   21 1
    31   19   41 1
    32   20   42 1
    33   21   22 1
    34   21   43 1
    35   22   23 ar
    36   22   31 ar
    37   23   24 ar
    38   23   44 1
    39   24   25 ar
    40   25   26 ar
    41   25   31 ar
    42   26   27 1
    43   26   28 ar
    44   27   45 1
    45   27   46 1
    46   28   29 ar
    47   28   48 1
    48   29   30 ar
    49   29   47 1
    50   30   31 ar
@<TRIPOS>SUBSTRUCTURE
     1 ACP         1 GROUP 0 A     ****
@<TRIPOS>MOLECULE
[[5-(6-amino-1,8-dihydropurine-6,8-diylium-7-id-9-yl)-3,4-dihydroxy-tetrahydrofuran-2-yl]methoxy-hydroxy-phosphoryl]oxy-[[hydroxy(oxido)phosphoryl]methyl]phosphinate
   48    50     1     0     0
SMALL
USER_CHARGES

@<TRIPOS>ATOM
      1 PG         -1.5280   -0.3219   -5.0333 P.3       1 ACP         1.3752
      2 O1G        -2.6056    0.5244   -5.6700 O.co2     1 ACP        -0.8816
      3 O2G        -0.8290    0.0923   -3.7588 O.co2     1 ACP        -0.8816
      4 O3G        -2.0642   -1.8548   -4.8810 O.3       1 ACP        -0.7903
      5 PB          1.3018   -1.6130   -5.9848 P.3       1 ACP         1.5257
      6 O1B         2.1042   -1.6202   -7.2657 O.co2     1 ACP        -0.8730
      7 O2B         0.8738   -2.8920   -5.3027 O.co2     1 ACP        -0.8730
      8 C3B        -0.2233   -0.6213   -6.3054 C.3       1 ACP        -0.5822
      9 PA          3.4942   -0.6454   -4.2283 P.3       1 ACP         1.7803
     10 O1A         4.5922   -0.0921   -5.0891 O.2       1 ACP        -0.8736
     11 O2A         3.6977   -2.1921   -3.7990 O.3       1 ACP        -0.7984
     12 O3A         2.0281   -0.6323   -4.9073 O.3       1 ACP        -0.7763
     13 O5'         3.2872    0.1331   -2.8242 O.3       1 ACP        -0.5927
     14 C5'         2.2816   -0.2918   -1.9206 C.3       1 ACP         0.1349
     15 C4'         2.7248    0.0226   -0.4980 C.3       1 ACP         0.1151
     16 O4'         2.4697    1.4219   -0.2462 O.3       1 ACP        -0.3857
     17 C3'         1.9404   -0.7419    0.5596 C.3       1 ACP         0.0978
     18 O3'         2.7418   -0.8086    1.7389 O.3       1 ACP        -0.5800
     19 C2'         0.7477    0.1630    0.7858 C.3       1 ACP         0.0885
     20 O2'         0.1373   -0.0577    2.0407 O.3       1 ACP        -0.5877
     21 C1'         1.3733    1.5427    0.6747 C.3       1 ACP         0.3822
     22 N9          0.4520    2.5240    0.1767 N.pl3     1 ACP        -0.4391
     23 C8          0.5793    3.3338   -1.1209 C.ar      1 ACP         0.1869
     24 N7         -0.4807    4.1508   -1.2458 N.2       1 ACP        -0.2730
     25 C5         -1.1921    3.8572   -0.1126 C.ar      1 ACP        -0.1385
     26 C6         -2.4855    4.5203    0.2163 C.ar      1 ACP         0.4818
     27 N6         -2.9873    5.4319   -0.6020 N.pl3     1 ACP        -0.8277
     28 N1         -3.0414    4.1119    1.3596 N.pl3     1 ACP        -0.6982
     29 C2         -2.4169    3.1071    2.1904 C.ar      1 ACP         0.6213
     30 N3         -1.2928    2.5191    1.9210 N.ar      1 ACP        -0.5099
     31 C4         -0.7202    2.9326    0.7534 C.ar      1 ACP         0.2813
     32 HOG3       -2.8656   -2.0183   -4.3395 H         1 ACP         0.4118
     33 H3B1        0.1047    0.3654   -6.6476 H         1 ACP         0.0929
     34 H3B2       -0.7228   -1.1036   -7.1533 H         1 ACP         0.0929
     35 HOA2        3.0188   -2.6210   -3.2357 H         1 ACP         0.4544
     36 H5'1        1.3493    0.2322   -2.1551 H         1 ACP         0.0887
     37 H5'2        2.1259   -1.3686   -2.0434 H         1 ACP         0.0887
     38 H4'         3.8046   -0.1390   -0.4012 H         1 ACP         0.1198
     39 H3'         1.6786   -1.7628    0.2719 H         1 ACP         0.0796
     40 HO3'        3.5553   -1.2733    1.4913 H         1 ACP         0.4356
     41 H2'         0.0002   -0.0084   -0.0014 H         1 ACP         0.0714
     42 HO2'       -0.1554   -0.9852    2.0577 H         1 ACP         0.4430
     43 H1'         1.7718    1.9211    1.6015 H         1 ACP         0.1194
     44 H8          1.3565    3.3309   -1.8916 H         1 ACP         0.2736
     45 HN61       -2.4952    5.6785   -1.4487 H         1 ACP         0.4770
     46 HN62       -3.8637    5.8828   -0.3819 H         1 ACP         0.4770
     47 H2         -2.9911    2.8734    3.1000 H         1 ACP         0.0919
     48 H48        -3.9253    4.5332    1.6302 H         1 ACP         0.4736
@<TRIPOS>BOND
     1    1    2 2
     2    1    3 1
     3    1    4 1
     4    1    8 1
     5    4   32 1
     6    5    6 2
     7    5    7 1
     8    5    8 1
     9    5   12 1
    10    8   33 1
    11    8   34 1
    12    9   10 2
    13    9   11 1
    14    9   12 1
    15    9   13 1
    16   11   35 1
    17   13   14 1
    18   14   15 1
    19   14   36 1
    20   14   37 1
    21   15   16 1
    22   15   17 1
    23   15   38 1
    24   16   21 1
    25   17   18 1
    26   17   19 1
    27   17   39 1
    28   18   40 1
    29   19   20 1
    30   19   21 1
    31   19   41 1
    32   20   42 1
    33   21   22 1
    34   21   43 1
    35   22   23 ar
    36   22   31 ar
    37   23   24 ar
    38   23   44 1
    39   24   25 ar
    40   25   26 ar
    41   25   31 ar
    42   26   27 1
    43   26   28 ar
    44   27   45 1
    45   27   46 1
    46   28   29 ar
    47   28   48 1
    48   29   30 ar
    49   29   47 1
    50   30   31 ar
@<TRIPOS>SUBSTRUCTURE
     1 ACP         1 GROUP 0 A     ****
@<TRIPOS>MOLECULE
[[5-(6-amino-1,8-dihydropurine-6,8-diylium-7-id-9-yl)-3,4-dihydroxy-tetrahydrofuran-2-yl]methoxy-hydroxy-phosphoryl]oxy-[[hydroxy(oxido)phosphoryl]methyl]phosphinate
   48    50     1     0     0
SMALL
USER_CHARGES

@<TRIPOS>ATOM
      1 PG         -4.8692   -4.1019    4.9503 P.3       1 ACP         1.3752
      2 O1G        -6.3748   -4.2214    4.9086 O.co2     1 ACP        -0.8816
      3 O2G        -4.0663   -3.6417    3.7554 O.co2     1 ACP        -0.8816
      4 O3G        -4.4321   -3.2346    6.2607 O.3       1 ACP        -0.7903
      5 PB         -2.3840   -6.0739    5.6681 P.3       1 ACP         1.5257
      6 O1B        -2.2453   -7.5138    6.1061 O.co2     1 ACP        -0.8730
      7 O2B        -1.7954   -4.9348    6.4685 O.co2     1 ACP        -0.8730
      8 C3B        -4.1899   -5.7371    5.4745 C.3       1 ACP        -0.5822
      9 PA         -0.5371   -6.2560    3.3477 P.3       1 ACP         1.7803
     10 O1A        -0.3027   -7.7044    3.0315 O.2       1 ACP        -0.8736
     11 O2A         0.5802   -5.5940    4.3127 O.3       1 ACP        -0.7984
     12 O3A        -1.9269   -5.9447    4.1110 O.3       1 ACP        -0.7763
     13 O5'        -0.5703   -5.2848    2.0532 O.3       1 ACP        -0.5927
     14 C5'        -0.7840   -3.8935    2.2172 C.3       1 ACP         0.1349
     15 C4'        -0.0724   -3.1466    1.1027 C.3       1 ACP         0.1151
     16 O4'        -0.8674   -3.1929   -0.0945 O.3       1 ACP        -0.3857
     17 C3'         0.1338   -1.6715    1.4027 C.3       1 ACP         0.0978
     18 O3'         1.2893   -1.4445    2.1808 O.3       1 ACP        -0.5800
     19 C2'         0.2158   -1.0724    0.0128 C.3       1 ACP         0.0885
     20 O2'         1.5141   -1.2448   -0.5513 O.3       1 ACP        -0.5877
     21 C1'        -0.7897   -1.9176   -0.7583 C.3       1 ACP         0.3822
     22 N9         -2.1040   -1.3333   -0.7704 N.pl3     1 ACP        -0.4391
     23 C8         -3.2124   -1.5345    0.2719 C.ar      1 ACP         0.1869
     24 N7         -4.2964   -0.8234   -0.0828 N.2       1 ACP        -0.2730
     25 C5         -3.8754   -0.2386   -1.2478 C.ar      1 ACP        -0.1385
     26 C6         -4.7432    0.6719   -2.0470 C.ar      1 ACP         0.4818
     27 N6         -5.9725    0.9415   -1.6366 N.pl3     1 ACP        -0.8277
     28 N1         -4.1703    1.1517   -3.1536 N.pl3     1 ACP        -0.6982
     29 C2         -2.8174    0.7994   -3.5215 C.ar      1 ACP         0.6213
     30 N3         -2.0475    0.0097   -2.8393 N.ar      1 ACP        -0.5099
     31 C4         -2.6278   -0.4836   -1.7071 C.ar      1 ACP         0.2813
     32 HOG3       -4.7601   -2.3138    6.3428 H         1 ACP         0.4118
     33 H3B1       -4.5764   -6.4732    4.7623 H         1 ACP         0.0929
     34 H3B2       -4.6438   -5.9637    6.4459 H         1 ACP         0.0929
     35 HOA2        0.7159   -5.9702    5.2084 H         1 ACP         0.4544
     36 H5'1       -1.8600   -3.6934    2.1849 H         1 ACP         0.0887
     37 H5'2       -0.3935   -3.5869    3.1930 H         1 ACP         0.0887
     38 H4'         0.8883   -3.6448    0.8784 H         1 ACP         0.1198
     39 H3'        -0.7368   -1.2358    1.9871 H         1 ACP         0.0796
     40 HO3'        1.1625   -1.9325    3.0084 H         1 ACP         0.4356
     41 H2'        -0.0343   -0.0280    0.0196 H         1 ACP         0.0714
     42 HO2'        2.1443   -0.7955    0.0378 H         1 ACP         0.4430
     43 H1'        -0.5175   -2.1046   -1.7826 H         1 ACP         0.1194
     44 H8         -3.2310   -2.1319    1.1889 H         1 ACP         0.2736
     45 HN61       -6.3230    0.5316   -0.7829 H         1 ACP         0.4770
     46 HN62       -6.5628    1.5584   -2.1760 H         1 ACP         0.4770
     47 H2         -2.4822    1.2710   -4.4579 H         1 ACP         0.0919
     48 H48        -4.7200    1.7780   -3.7346 H         1 ACP         0.4736
@<TRIPOS>BOND
     1    1    2 2
     2    1    3 1
     3    1    4 1
     4    1    8 1
     5    4   32 1
     6    5    6 2
     7    5    7 1
     8    5    8 1
     9    5   12 1
    10    8   33 1
    11    8   34 1
    12    9   10 2
    13    9   11 1
    14    9   12 1
    15    9   13 1
    16   11   35 1
    17   13   14 1
    18   14   15 1
    19   14   36 1
    20   14   37 1
    21   15   16 1
    22   15   17 1
    23   15   38 1
    24   16   21 1
    25   17   18 1
    26   17   19 1
    27   17   39 1
    28   18   40 1
    29   19   20 1
    30   19   21 1
    31   19   41 1
    32   20   42 1
    33   21   22 1
    34   21   43 1
    35   22   23 ar
    36   22   31 ar
    37   23   24 ar
    38   23   44 1
    39   24   25 ar
    40   25   26 ar
    41   25   31 ar
    42   26   27 1
    43   26   28 ar
    44   27   45 1
    45   27   46 1
    46   28   29 ar
    47   28   48 1
    48   29   30 ar
    49   29   47 1
    50   30   31 ar
@<TRIPOS>SUBSTRUCTURE
     1 ACP         1 GROUP 0 A     ****
@<TRIPOS>MOLECULE
[[5-(6-amino-1,8-dihydropurine-6,8-diylium-7-id-9-yl)-3,4-dihydroxy-tetrahydrofuran-2-yl]methoxy-hydroxy-phosphoryl]oxy-[[hydroxy(oxido)phosphoryl]methyl]phosphinate
   48    50     1     0     0
SMALL
USER_CHARGES

@<TRIPOS>ATOM
      1 PG          0.8685   -4.3786    6.8550 P.3       1 ACP         1.3752
      2 O1G         1.8234   -3.6097    7.7380 O.co2     1 ACP        -0.8816
      3 O2G         0.9957   -4.3860    5.3490 O.co2     1 ACP        -0.8816
      4 O3G         0.7508   -5.9135    7.3942 O.3       1 ACP        -0.7903
      5 PB         -2.3546   -4.4872    6.4304 P.3       1 ACP         1.5257
      6 O1B        -3.5442   -3.7816    7.0399 O.co2     1 ACP        -0.8730
      7 O2B        -2.2377   -5.9941    6.4208 O.co2     1 ACP        -0.8730
      8 C3B        -0.8448   -3.8217    7.2609 C.3       1 ACP        -0.5822
      9 PA         -3.0213   -3.8721    3.6009 P.3       1 ACP         1.7803
     10 O1A        -4.3176   -3.1304    3.7500 O.2       1 ACP        -0.8736
     11 O2A        -3.1868   -5.4347    3.2149 O.3       1 ACP        -0.7984
     12 O3A        -2.1032   -3.9073    4.9301 O.3       1 ACP        -0.7763
     13 O5'        -2.0396   -3.2818    2.4572 O.3       1 ACP        -0.5927
     14 C5'        -0.7840   -3.8935    2.2172 C.3       1 ACP         0.1349
     15 C4'        -0.0724   -3.1466    1.1027 C.3       1 ACP         0.1151
     16 O4'        -0.8674   -3.1929   -0.0945 O.3       1 ACP        -0.3857
     17 C3'         0.1338   -1.6715    1.4027 C.3       1 ACP         0.0978
     18 O3'         1.2893   -1.4445    2.1808 O.3       1 ACP        -0.5800
     19 C2'         0.2158   -1.0724    0.0128 C.3       1 ACP         0.0885
     20 O2'         1.5141   -1.2448   -0.5513 O.3       1 ACP        -0.5877
     21 C1'        -0.7897   -1.9176   -0.7583 C.3       1 ACP         0.3822
     22 N9         -2.1040   -1.3333   -0.7704 N.pl3     1 ACP        -0.4391
     23 C8         -3.3877   -1.9383   -0.1859 C.ar      1 ACP         0.1869
     24 N7         -4.4144   -1.0952   -0.3898 N.2       1 ACP        -0.2730
     25 C5         -3.7988   -0.0622   -1.0459 C.ar      1 ACP        -0.1385
     26 C6         -4.5350    1.1514   -1.4997 C.ar      1 ACP         0.4818
     27 N6         -5.8346    1.2592   -1.2722 N.pl3     1 ACP        -0.8277
     28 N1         -3.7771    2.0576   -2.1221 N.pl3     1 ACP        -0.6982
     29 C2         -2.3607    1.8514   -2.3252 C.ar      1 ACP         0.6213
     30 N3         -1.7031    0.8030   -1.9377 N.ar      1 ACP        -0.5099
     31 C4         -2.4728   -0.1265   -1.3008 C.ar      1 ACP         0.2813
     32 HOG3        1.5634   -6.4622    7.4242 H         1 ACP         0.4118
     33 H3B1       -0.8566   -2.7361    7.1206 H         1 ACP         0.0929
     34 H3B2       -0.9846   -4.0067    8.3320 H         1 ACP         0.0929
     35 HOA2       -3.6802   -6.0239    3.8245 H         1 ACP         0.4544
     36 H5'1       -0.1918   -3.8613    3.1375 H         1 ACP         0.0887
     37 H5'2       -0.9465   -4.9386    1.9341 H         1 ACP         0.0887
     38 H4'         0.8883   -3.6448    0.8784 H         1 ACP         0.1198
     39 H3'        -0.7368   -1.2358    1.9871 H         1 ACP         0.0796
     40 HO3'        1.3407   -0.4871    2.3218 H         1 ACP         0.4356
     41 H2'        -0.0343   -0.0280    0.0196 H         1 ACP         0.0714
     42 HO2'        2.1443   -0.7955    0.0378 H         1 ACP         0.4430
     43 H1'        -0.5175   -2.1046   -1.7826 H         1 ACP         0.1194
     44 H8         -3.5590   -2.8873    0.3318 H         1 ACP         0.2736
     45 HN61       -6.3278    0.5206   -0.7915 H         1 ACP         0.4770
     46 HN62       -6.3361    2.0806   -1.5783 H         1 ACP         0.4770
     47 H2         -1.8692    2.6833   -2.8525 H         1 ACP         0.0919
     48 H48        -4.2310    2.9046   -2.4517 H         1 ACP         0.4736
@<TRIPOS>BOND
     1    1    2 2
     2    1    3 1
     3    1    4 1
     4    1    8 1
     5    4   32 1
     6    5    6 2
     7    5    7 1
     8    5    8 1
     9    5   12 1
    10    8   33 1
    11    8   34 1
    12    9   10 2
    13    9   11 1
    14    9   12 1
    15    9   13 1
    16   11   35 1
    17   13   14 1
    18   14   15 1
    19   14   36 1
    20   14   37 1
    21   15   16 1
    22   15   17 1
    23   15   38 1
    24   16   21 1
    25   17   18 1
    26   17   19 1
    27   17   39 1
    28   18   40 1
    29   19   20 1
    30   19   21 1
    31   19   41 1
    32   20   42 1
    33   21   22 1
    34   21   43 1
    35   22   23 ar
    36   22   31 ar
    37   23   24 ar
    38   23   44 1
    39   24   25 ar
    40   25   26 ar
    41   25   31 ar
    42   26   27 1
    43   26   28 ar
    44   27   45 1
    45   27   46 1
    46   28   29 ar
    47   28   48 1
    48   29   30 ar
    49   29   47 1
    50   30   31 ar
@<TRIPOS>SUBSTRUCTURE
     1 ACP         1 GROUP 0 A     ****
@<TRIPOS>MOLECULE
[[5-(6-amino-1,8-dihydropurine-6,8-diylium-7-id-9-yl)-3,4-dihydroxy-tetrahydrofuran-2-yl]methoxy-hydroxy-phosphoryl]oxy-[[hydroxy(oxido)phosphoryl]methyl]phosphinate
   48    50     1     0     0
SMALL
USER_CHARGES

@<TRIPOS>ATOM
      1 PG          6.5007   -0.6250   -6.7231 P.3       1 ACP         1.3752
      2 O1G         7.1042    0.5061   -7.5224 O.co2     1 ACP        -0.8816
      3 O2G         5.1934   -1.2760   -7.1125 O.co2     1 ACP        -0.8816
      4 O3G         7.6280   -1.7793   -6.4839 O.3       1 ACP        -0.7903
      5 PB          5.6375   -1.1000   -3.6232 P.3       1 ACP         1.5257
      6 O1B         5.6710   -0.2730   -2.3585 O.co2     1 ACP        -0.8730
      7 O2B         6.3064   -2.4525   -3.7116 O.co2     1 ACP        -0.8730
      8 C3B         6.3320   -0.0513   -4.9759 C.3       1 ACP        -0.5822
      9 PA          2.8566   -2.1437   -3.6985 P.3       1 ACP         1.7803
     10 O1A         3.0912   -3.6192   -3.8419 O.2       1 ACP        -0.8736
     11 O2A         1.6238   -1.5751   -4.5786 O.3       1 ACP        -0.7984
     12 O3A         4.0996   -1.2128   -4.1449 O.3       1 ACP        -0.7763
     13 O5'         2.5233   -1.6621   -2.1894 O.3       1 ACP        -0.5927
     14 C5'         2.2816   -0.2918   -1.9206 C.3       1 ACP         0.1349
     15 C4'         2.7248    0.0226   -0.4980 C.3       1 ACP         0.1151
     16 O4'         2.4697    1.4219   -0.2462 O.3       1 ACP        -0.3857
     17 C3'         1.9404   -0.7419    0.5596 C.3       1 ACP         0.0978
     18 O3'         2.7418   -0.8086    1.7389 O.3       1 ACP        -0.5800
     19 C2'         0.7477    0.1630    0.7858 C.3       1 ACP         0.0885
     20 O2'         0.1373   -0.0577    2.0407 O.3       1 ACP        -0.5877
     21 C1'         1.3733    1.5427    0.6747 C.3       1 ACP         0.3822
     22 N9          0.4520    2.5240    0.1767 N.pl3     1 ACP        -0.4391
     23 C8         -0.4598    3.4379    1.0068 C.ar      1 ACP         0.1869
     24 N7         -1.1770    4.2228    0.1845 N.2       1 ACP        -0.2730
     25 C5         -0.7330    3.8149   -1.0455 C.ar      1 ACP        -0.1385
     26 C6         -1.2413    4.4029   -2.3169 C.ar      1 ACP         0.4818
     27 N6         -2.1578    5.3575   -2.2832 N.pl3     1 ACP        -0.8277
     28 N1         -0.6977    3.8860   -3.4216 N.pl3     1 ACP        -0.6982
     29 C2          0.3002    2.8419   -3.3591 C.ar      1 ACP         0.6213
     30 N3          0.7548    2.3183   -2.2631 N.ar      1 ACP        -0.5099
     31 C4          0.2027    2.8430   -1.1309 C.ar      1 ACP         0.2813
     32 HOG3        8.0291   -2.2110   -7.2681 H         1 ACP         0.4118
     33 H3B1        5.7320    0.8637   -5.0094 H         1 ACP         0.0929
     34 H3B2        7.3366    0.2375   -4.6468 H         1 ACP         0.0929
     35 HOA2        0.7240   -1.9324   -4.4206 H         1 ACP         0.4544
     36 H5'1        2.8428    0.3151   -2.6386 H         1 ACP         0.0887
     37 H5'2        1.2124   -0.0895   -2.0416 H         1 ACP         0.0887
     38 H4'         3.8046   -0.1390   -0.4012 H         1 ACP         0.1198
     39 H3'         1.6786   -1.7628    0.2719 H         1 ACP         0.0796
     40 HO3'        2.2231   -1.2979    2.3952 H         1 ACP         0.4356
     41 H2'         0.0002   -0.0084   -0.0014 H         1 ACP         0.0714
     42 HO2'       -0.6132    0.5577    2.1063 H         1 ACP         0.4430
     43 H1'         1.7718    1.9211    1.6015 H         1 ACP         0.1194
     44 H8         -0.5892    3.5248    2.0902 H         1 ACP         0.2736
     45 HN61       -2.5128    5.6880   -1.3974 H         1 ACP         0.4770
     46 HN62       -2.5040    5.7581   -3.1431 H         1 ACP         0.4770
     47 H2          0.6550    2.5166   -4.3490 H         1 ACP         0.0919
     48 H48        -1.0101    4.2527   -4.3160 H         1 ACP         0.4736
@<TRIPOS>BOND
     1    1    2 2
     2    1    3 1
     3    1    4 1
     4    1    8 1
     5    4   32 1
     6    5    6 2
     7    5    7 1
     8    5    8 1
     9    5   12 1
    10    8   33 1
    11    8   34 1
    12    9   10 2
    13    9   11 1
    14    9   12 1
    15    9   13 1
    16   11   35 1
    17   13   14 1
    18   14   15 1
    19   14   36 1
    20   14   37 1
    21   15   16 1
    22   15   17 1
    23   15   38 1
    24   16   21 1
    25   17   18 1
    26   17   19 1
    27   17   39 1
    28   18   40 1
    29   19   20 1
    30   19   21 1
    31   19   41 1
    32   20   42 1
    33   21   22 1
    34   21   43 1
    35   22   23 ar
    36   22   31 ar
    37   23   24 ar
    38   23   44 1
    39   24   25 ar
    40   25   26 ar
    41   25   31 ar
    42   26   27 1
    43   26   28 ar
    44   27   45 1
    45   27   46 1
    46   28   29 ar
    47   28   48 1
    48   29   30 ar
    49   29   47 1
    50   30   31 ar
@<TRIPOS>SUBSTRUCTURE
     1 ACP         1 GROUP 0 A     ****
@<TRIPOS>MOLECULE
[[5-(6-amino-1,8-dihydropurine-6,8-diylium-7-id-9-yl)-3,4-dihydroxy-tetrahydrofuran-2-yl]methoxy-hydroxy-phosphoryl]oxy-[[hydroxy(oxido)phosphoryl]methyl]phosphinate
   48    50     1     0     0
SMALL
USER_CHARGES

@<TRIPOS>ATOM
      1 PG          2.2705   -6.3790   -0.9551 P.3       1 ACP         1.3752
      2 O1G         2.5727   -5.9545   -2.3733 O.co2     1 ACP        -0.8816
      3 O2G         0.8900   -6.2477   -0.3539 O.co2     1 ACP        -0.8816
      4 O3G         2.8212   -7.8956   -0.7160 O.3       1 ACP        -0.7903
      5 PB          3.4541   -5.6929    1.9959 P.3       1 ACP         1.5257
      6 O1B         4.5516   -4.8043    2.5347 O.co2     1 ACP        -0.8730
      7 O2B         3.4107   -7.1754    2.2872 O.co2     1 ACP        -0.8730
      8 C3B         3.4442   -5.4906    0.1599 C.3       1 ACP        -0.5822
      9 PA          1.1060   -4.9957    3.6779 P.3       1 ACP         1.7803
     10 O1A         1.8752   -4.8178    4.9544 O.2       1 ACP        -0.8736
     11 O2A         0.2635   -6.3744    3.5928 O.3       1 ACP        -0.7984
     12 O3A         2.0105   -5.0233    2.3391 O.3       1 ACP        -0.7763
     13 O5'         0.0088   -3.8408    3.3906 O.3       1 ACP        -0.5927
     14 C5'        -0.7840   -3.8935    2.2172 C.3       1 ACP         0.1349
     15 C4'        -0.0724   -3.1466    1.1027 C.3       1 ACP         0.1151
     16 O4'        -0.8674   -3.1929   -0.0945 O.3       1 ACP        -0.3857
     17 C3'         0.1338   -1.6715    1.4027 C.3       1 ACP         0.0978
     18 O3'         1.2893   -1.4445    2.1808 O.3       1 ACP        -0.5800
     19 C2'         0.2158   -1.0724    0.0128 C.3       1 ACP         0.0885
     20 O2'         1.5141   -1.2448   -0.5513 O.3       1 ACP        -0.5877
     21 C1'        -0.7897   -1.9176   -0.7583 C.3       1 ACP         0.3822
     22 N9         -2.1040   -1.3333   -0.7704 N.pl3     1 ACP        -0.4391
     23 C8         -3.2124   -1.5345    0.2719 C.ar      1 ACP         0.1869
     24 N7         -4.2964   -0.8234   -0.0828 N.2       1 ACP        -0.2730
     25 C5         -3.8754   -0.2386   -1.2478 C.ar      1 ACP        -0.1385
     26 C6         -4.7432    0.6719   -2.0470 C.ar      1 ACP         0.4818
     27 N6         -5.9725    0.9415   -1.6366 N.pl3     1 ACP        -0.8277
     28 N1         -4.1703    1.1517   -3.1536 N.pl3     1 ACP        -0.6982
     29 C2         -2.8174    0.7994   -3.5215 C.ar      1 ACP         0.6213
     30 N3         -2.0475    0.0097   -2.8393 N.ar      1 ACP        -0.5099
     31 C4         -2.6278   -0.4836   -1.7071 C.ar      1 ACP         0.2813
     32 HOG3        2.4635   -8.6168   -1.2765 H         1 ACP         0.4118
     33 H3B1        3.3116   -4.4229   -0.0421 H         1 ACP         0.0929
     34 H3B2        4.4525   -5.7564   -0.1773 H         1 ACP         0.0929
     35 HOA2        0.7435   -7.2277    3.6524 H         1 ACP         0.4544
     36 H5'1       -0.9363   -4.9413    1.9384 H         1 ACP         0.0887
     37 H5'2       -1.7563   -3.4348    2.4247 H         1 ACP         0.0887
     38 H4'         0.8883   -3.6448    0.8784 H         1 ACP         0.1198
     39 H3'        -0.7368   -1.2358    1.9871 H         1 ACP         0.0796
     40 HO3'        1.1625   -1.9325    3.0084 H         1 ACP         0.4356
     41 H2'        -0.0343   -0.0280    0.0196 H         1 ACP         0.0714
     42 HO2'        2.1443   -0.7955    0.0378 H         1 ACP         0.4430
     43 H1'        -0.5175   -2.1046   -1.7826 H         1 ACP         0.1194
     44 H8         -3.2310   -2.1319    1.1889 H         1 ACP         0.2736
     45 HN61       -6.3230    0.5316   -0.7829 H         1 ACP         0.4770
     46 HN62       -6.5628    1.5584   -2.1760 H         1 ACP         0.4770
     47 H2         -2.4822    1.2710   -4.4579 H         1 ACP         0.0919
     48 H48        -4.7200    1.7780   -3.7346 H         1 ACP         0.4736
@<TRIPOS>BOND
     1    1    2 2
     2    1    3 1
     3    1    4 1
     4    1    8 1
     5    4   32 1
     6    5    6 2
     7    5    7 1
     8    5    8 1
     9    5   12 1
    10    8   33 1
    11    8   34 1
    12    9   10 2
    13    9   11 1
    14    9   12 1
    15    9   13 1
    16   11   35 1
    17   13   14 1
    18   14   15 1
    19   14   36 1
    20   14   37 1
    21   15   16 1
    22   15   17 1
    23   15   38 1
    24   16   21 1
    25   17   18 1
    26   17   19 1
    27   17   39 1
    28   18   40 1
    29   19   20 1
    30   19   21 1
    31   19   41 1
    32   20   42 1
    33   21   22 1
    34   21   43 1
    35   22   23 ar
    36   22   31 ar
    37   23   24 ar
    38   23   44 1
    39   24   25 ar
    40   25   26 ar
    41   25   31 ar
    42   26   27 1
    43   26   28 ar
    44   27   45 1
    45   27   46 1
    46   28   29 ar
    47   28   48 1
    48   29   30 ar
    49   29   47 1
    50   30   31 ar
@<TRIPOS>SUBSTRUCTURE
     1 ACP         1 GROUP 0 A     ****
@<TRIPOS>MOLECULE
[[5-(6-amino-1,8-dihydropurine-6,8-diylium-7-id-9-yl)-3,4-dihydroxy-tetrahydrofuran-2-yl]methoxy-hydroxy-phosphoryl]oxy-[[hydroxy(oxido)phosphoryl]methyl]phosphinate
   48    50     1     0     0
SMALL
USER_CHARGES

@<TRIPOS>ATOM
      1 PG          7.7860    0.6592   -3.8292 P.3       1 ACP         1.3752
      2 O1G         8.4058    2.0013   -3.5172 O.co2     1 ACP        -0.8816
      3 O2G         6.7576    0.4837   -4.9227 O.co2     1 ACP        -0.8816
      4 O3G         8.9664   -0.4509   -4.0154 O.3       1 ACP        -0.7903
      5 PB          6.1747   -1.6197   -2.1587 P.3       1 ACP         1.5257
      6 O1B         5.7241   -1.7858   -0.7256 O.co2     1 ACP        -0.8730
      7 O2B         7.0432   -2.6471   -2.8477 O.co2     1 ACP        -0.8730
      8 C3B         7.0482    0.0042   -2.2682 C.3       1 ACP        -0.5822
      9 PA          3.5143   -2.0869   -3.3967 P.3       1 ACP         1.7803
     10 O1A         3.6810   -3.5683   -3.5713 O.2       1 ACP        -0.8736
     11 O2A         2.9125   -1.3257   -4.6915 O.3       1 ACP        -0.7984
     12 O3A         4.8811   -1.2823   -3.0877 O.3       1 ACP        -0.7763
     13 O5'         2.5233   -1.6621   -2.1894 O.3       1 ACP        -0.5927
     14 C5'         2.2816   -0.2918   -1.9206 C.3       1 ACP         0.1349
     15 C4'         2.7248    0.0226   -0.4980 C.3       1 ACP         0.1151
     16 O4'         2.4697    1.4219   -0.2462 O.3       1 ACP        -0.3857
     17 C3'         1.9404   -0.7419    0.5596 C.3       1 ACP         0.0978
     18 O3'         2.7418   -0.8086    1.7389 O.3       1 ACP        -0.5800
     19 C2'         0.7477    0.1630    0.7858 C.3       1 ACP         0.0885
     20 O2'         0.1373   -0.0577    2.0407 O.3       1 ACP        -0.5877
     21 C1'         1.3733    1.5427    0.6747 C.3       1 ACP         0.3822
     22 N9          0.4520    2.5240    0.1767 N.pl3     1 ACP        -0.4391
     23 C8         -1.0660    2.5608    0.3999 C.ar      1 ACP         0.1869
     24 N7         -1.5852    3.6333   -0.2221 N.2       1 ACP        -0.2730
     25 C5         -0.4682    4.1996   -0.7771 C.ar      1 ACP        -0.1385
     26 C6         -0.5216    5.4476   -1.5899 C.ar      1 ACP         0.4818
     27 N6         -1.6813    6.0510   -1.7982 N.pl3     1 ACP        -0.8277
     28 N1          0.6621    5.8575   -2.0523 N.pl3     1 ACP        -0.6982
     29 C2          1.8795    5.1301   -1.7717 C.ar      1 ACP         0.6213
     30 N3          1.9458    4.0434   -1.0670 N.ar      1 ACP        -0.5099
     31 C4          0.7388    3.6199   -0.5917 C.ar      1 ACP         0.2813
     32 HOG3        9.6329   -0.3110   -4.7215 H         1 ACP         0.4118
     33 H3B1        6.3470    0.7673   -1.9157 H         1 ACP         0.0929
     34 H3B2        7.8631   -0.0429   -1.5368 H         1 ACP         0.0929
     35 HOA2        2.0268   -1.5842   -5.0242 H         1 ACP         0.4544
     36 H5'1        2.8428    0.3151   -2.6386 H         1 ACP         0.0887
     37 H5'2        1.2124   -0.0895   -2.0416 H         1 ACP         0.0887
     38 H4'         3.8046   -0.1390   -0.4012 H         1 ACP         0.1198
     39 H3'         1.6786   -1.7628    0.2719 H         1 ACP         0.0796
     40 HO3'        3.5553   -1.2733    1.4913 H         1 ACP         0.4356
     41 H2'         0.0002   -0.0084   -0.0014 H         1 ACP         0.0714
     42 HO2'       -0.1554   -0.9852    2.0577 H         1 ACP         0.4430
     43 H1'         1.7718    1.9211    1.6015 H         1 ACP         0.1194
     44 H8         -1.7235    1.8833    0.9537 H         1 ACP         0.2736
     45 HN61       -2.5296    5.6672   -1.4072 H         1 ACP         0.4770
     46 HN62       -1.7205    6.8969   -2.3483 H         1 ACP         0.4770
     47 H2          2.7750    5.5878   -2.2190 H         1 ACP         0.0919
     48 H48         0.6808    6.7046   -2.6128 H         1 ACP         0.4736
@<TRIPOS>BOND
     1    1    2 2
     2    1    3 1
     3    1    4 1
     4    1    8 1
     5    4   32 1
     6    5    6 2
     7    5    7 1
     8    5    8 1
     9    5   12 1
    10    8   33 1
    11    8   34 1
    12    9   10 2
    13    9   11 1
    14    9   12 1
    15    9   13 1
    16   11   35 1
    17   13   14 1
    18   14   15 1
    19   14   36 1
    20   14   37 1
    21   15   16 1
    22   15   17 1
    23   15   38 1
    24   16   21 1
    25   17   18 1
    26   17   19 1
    27   17   39 1
    28   18   40 1
    29   19   20 1
    30   19   21 1
    31   19   41 1
    32   20   42 1
    33   21   22 1
    34   21   43 1
    35   22   23 ar
    36   22   31 ar
    37   23   24 ar
    38   23   44 1
    39   24   25 ar
    40   25   26 ar
    41   25   31 ar
    42   26   27 1
    43   26   28 ar
    44   27   45 1
    45   27   46 1
    46   28   29 ar
    47   28   48 1
    48   29   30 ar
    49   29   47 1
    50   30   31 ar
@<TRIPOS>SUBSTRUCTURE
     1 ACP         1 GROUP 0 A     ****
@<TRIPOS>MOLECULE
[[5-(6-amino-1,8-dihydropurine-6,8-diylium-7-id-9-yl)-3,4-dihydroxy-tetrahydrofuran-2-yl]methoxy-hydroxy-phosphoryl]oxy-[[hydroxy(oxido)phosphoryl]methyl]phosphinate
   48    50     1     0     0
SMALL
USER_CHARGES

@<TRIPOS>ATOM
      1 PG          0.5118   -1.3663   -7.9777 P.3       1 ACP         1.3752
      2 O1G        -0.4658   -0.5835   -8.8229 O.co2     1 ACP        -0.8816
      3 O2G         0.0708   -2.5006   -7.0817 O.co2     1 ACP        -0.8816
      4 O3G         1.7527   -1.8667   -8.9106 O.3       1 ACP        -0.7903
      5 PB          2.7474   -0.6579   -5.7237 P.3       1 ACP         1.5257
      6 O1B         3.2534    0.6081   -5.0712 O.co2     1 ACP        -0.8730
      7 O2B         3.6748   -1.6161   -6.4351 O.co2     1 ACP        -0.8730
      8 C3B         1.4371   -0.1617   -6.9275 C.3       1 ACP        -0.5822
      9 PA          2.1851   -2.4502   -3.4215 P.3       1 ACP         1.7803
     10 O1A         2.9708   -3.6742   -3.7922 O.2       1 ACP        -0.8736
     11 O2A         0.7441   -2.7589   -2.7536 O.3       1 ACP        -0.7984
     12 O3A         1.8261   -1.4743   -4.6583 O.3       1 ACP        -0.7763
     13 O5'         2.9194   -1.4813   -2.3528 O.3       1 ACP        -0.5927
     14 C5'         2.2816   -0.2918   -1.9206 C.3       1 ACP         0.1349
     15 C4'         2.7248    0.0226   -0.4980 C.3       1 ACP         0.1151
     16 O4'         2.4697    1.4219   -0.2462 O.3       1 ACP        -0.3857
     17 C3'         1.9404   -0.7419    0.5596 C.3       1 ACP         0.0978
     18 O3'         2.7418   -0.8086    1.7389 O.3       1 ACP        -0.5800
     19 C2'         0.7477    0.1630    0.7858 C.3       1 ACP         0.0885
     20 O2'         0.1373   -0.0577    2.0407 O.3       1 ACP        -0.5877
     21 C1'         1.3733    1.5427    0.6747 C.3       1 ACP         0.3822
     22 N9          0.4520    2.5240    0.1767 N.pl3     1 ACP        -0.4391
     23 C8         -0.7463    2.2774   -0.7501 C.ar      1 ACP         0.1869
     24 N7         -1.3714    3.4419   -0.9948 N.2       1 ACP        -0.2730
     25 C5         -0.6104    4.3223   -0.2722 C.ar      1 ACP        -0.1385
     26 C6         -0.9062    5.7820   -0.2194 C.ar      1 ACP         0.4818
     27 N6         -1.9385    6.2713   -0.8881 N.pl3     1 ACP        -0.8277
     28 N1         -0.0613    6.4906    0.5336 N.pl3     1 ACP        -0.6982
     29 C2          1.0416    5.8662    1.2291 C.ar      1 ACP         0.6213
     30 N3          1.3146    4.5989    1.1954 N.ar      1 ACP        -0.5099
     31 C4          0.4541    3.8697    0.4273 C.ar      1 ACP         0.2813
     32 HOG3        1.5577   -2.4495   -9.6751 H         1 ACP         0.4118
     33 H3B1        0.6832    0.3980   -6.3647 H         1 ACP         0.0929
     34 H3B2        1.9132    0.5465   -7.6151 H         1 ACP         0.0929
     35 HOA2        0.7087   -3.2740   -1.9196 H         1 ACP         0.4544
     36 H5'1        2.5576    0.5245   -2.5961 H         1 ACP         0.0887
     37 H5'2        1.1970   -0.4360   -1.9602 H         1 ACP         0.0887
     38 H4'         3.8046   -0.1390   -0.4012 H         1 ACP         0.1198
     39 H3'         1.6786   -1.7628    0.2719 H         1 ACP         0.0796
     40 HO3'        2.2231   -1.2979    2.3952 H         1 ACP         0.4356
     41 H2'         0.0002   -0.0084   -0.0014 H         1 ACP         0.0714
     42 HO2'       -0.6132    0.5577    2.1063 H         1 ACP         0.4430
     43 H1'         1.7718    1.9211    1.6015 H         1 ACP         0.1194
     44 H8         -1.1244    1.3534   -1.1987 H         1 ACP         0.2736
     45 HN61       -2.5259    5.6573   -1.4336 H         1 ACP         0.4770
     46 HN62       -2.1416    7.2600   -0.8539 H         1 ACP         0.4770
     47 H2          1.6509    6.5764    1.8088 H         1 ACP         0.0919
     48 H48        -0.2190    7.4917    0.6033 H         1 ACP         0.4736
@<TRIPOS>BOND
     1    1    2 2
     2    1    3 1
     3    1    4 1
     4    1    8 1
     5    4   32 1
     6    5    6 2
     7    5    7 1
     8    5    8 1
     9    5   12 1
    10    8   33 1
    11    8   34 1
    12    9   10 2
    13    9   11 1
    14    9   12 1
    15    9   13 1
    16   11   35 1
    17   13   14 1
    18   14   15 1
    19   14   36 1
    20   14   37 1
    21   15   16 1
    22   15   17 1
    23   15   38 1
    24   16   21 1
    25   17   18 1
    26   17   19 1
    27   17   39 1
    28   18   40 1
    29   19   20 1
    30   19   21 1
    31   19   41 1
    32   20   42 1
    33   21   22 1
    34   21   43 1
    35   22   23 ar
    36   22   31 ar
    37   23   24 ar
    38   23   44 1
    39   24   25 ar
    40   25   26 ar
    41   25   31 ar
    42   26   27 1
    43   26   28 ar
    44   27   45 1
    45   27   46 1
    46   28   29 ar
    47   28   48 1
    48   29   30 ar
    49   29   47 1
    50   30   31 ar
@<TRIPOS>SUBSTRUCTURE
     1 ACP         1 GROUP 0 A     ****
@<TRIPOS>MOLECULE
[[5-(6-amino-1,8-dihydropurine-6,8-diylium-7-id-9-yl)-3,4-dihydroxy-tetrahydrofuran-2-yl]methoxy-hydroxy-phosphoryl]oxy-[[hydroxy(oxido)phosphoryl]methyl]phosphinate
   48    50     1     0     0
SMALL
USER_CHARGES

@<TRIPOS>ATOM
      1 PG          3.4958    2.6025   -5.7089 P.3       1 ACP         1.3752
      2 O1G         4.5654    3.5069   -6.2752 O.co2     1 ACP        -0.8816
      3 O2G         3.4281    2.2611   -4.2381 O.co2     1 ACP        -0.8816
      4 O3G         2.0317    3.1168   -6.2115 O.3       1 ACP        -0.7903
      5 PB          2.4242   -0.4110   -6.3011 P.3       1 ACP         1.5257
      6 O1B         2.7899   -1.5116   -7.2704 O.co2     1 ACP        -0.8730
      7 O2B         1.0197    0.1400   -6.2104 O.co2     1 ACP        -0.8730
      8 C3B         3.5536    1.0103   -6.6425 C.3       1 ACP        -0.5822
      9 PA          2.6330   -2.0589   -3.8376 P.3       1 ACP         1.7803
     10 O1A         3.3724   -3.3233   -4.1653 O.2       1 ACP        -0.8736
     11 O2A         1.0219   -2.1902   -3.9091 O.3       1 ACP        -0.7984
     12 O3A         2.9536   -0.8128   -4.8150 O.3       1 ACP        -0.7763
     13 O5'         2.9194   -1.4813   -2.3528 O.3       1 ACP        -0.5927
     14 C5'         2.2816   -0.2918   -1.9206 C.3       1 ACP         0.1349
     15 C4'         2.7248    0.0226   -0.4980 C.3       1 ACP         0.1151
     16 O4'         2.4697    1.4219   -0.2462 O.3       1 ACP        -0.3857
     17 C3'         1.9404   -0.7419    0.5596 C.3       1 ACP         0.0978
     18 O3'         2.7418   -0.8086    1.7389 O.3       1 ACP        -0.5800
     19 C2'         0.7477    0.1630    0.7858 C.3       1 ACP         0.0885
     20 O2'         0.1373   -0.0577    2.0407 O.3       1 ACP        -0.5877
     21 C1'         1.3733    1.5427    0.6747 C.3       1 ACP         0.3822
     22 N9          0.4520    2.5240    0.1767 N.pl3     1 ACP        -0.4391
     23 C8         -0.7463    2.2774   -0.7501 C.ar      1 ACP         0.1869
     24 N7         -1.3714    3.4419   -0.9948 N.2       1 ACP        -0.2730
     25 C5         -0.6104    4.3223   -0.2722 C.ar      1 ACP        -0.1385
     26 C6         -0.9062    5.7820   -0.2194 C.ar      1 ACP         0.4818
     27 N6         -1.9385    6.2713   -0.8881 N.pl3     1 ACP        -0.8277
     28 N1         -0.0613    6.4906    0.5336 N.pl3     1 ACP        -0.6982
     29 C2          1.0416    5.8662    1.2291 C.ar      1 ACP         0.6213
     30 N3          1.3146    4.5989    1.1954 N.ar      1 ACP        -0.5099
     31 C4          0.4541    3.8697    0.4273 C.ar      1 ACP         0.2813
     32 HOG3        1.7471    4.0243   -5.9716 H         1 ACP         0.4118
     33 H3B1        4.5771    0.6340   -6.5455 H         1 ACP         0.0929
     34 H3B2        3.4058    1.2650   -7.6981 H         1 ACP         0.0929
     35 HOA2        0.6044   -2.4461   -4.7590 H         1 ACP         0.4544
     36 H5'1        2.5576    0.5245   -2.5961 H         1 ACP         0.0887
     37 H5'2        1.1970   -0.4360   -1.9602 H         1 ACP         0.0887
     38 H4'         3.8046   -0.1390   -0.4012 H         1 ACP         0.1198
     39 H3'         1.6786   -1.7628    0.2719 H         1 ACP         0.0796
     40 HO3'        2.2231   -1.2979    2.3952 H         1 ACP         0.4356
     41 H2'         0.0002   -0.0084   -0.0014 H         1 ACP         0.0714
     42 HO2'       -0.6132    0.5577    2.1063 H         1 ACP         0.4430
     43 H1'         1.7718    1.9211    1.6015 H         1 ACP         0.1194
     44 H8         -1.1244    1.3534   -1.1987 H         1 ACP         0.2736
     45 HN61       -2.5259    5.6573   -1.4336 H         1 ACP         0.4770
     46 HN62       -2.1416    7.2600   -0.8539 H         1 ACP         0.4770
     47 H2          1.6509    6.5764    1.8088 H         1 ACP         0.0919
     48 H48        -0.2190    7.4917    0.6033 H         1 ACP         0.4736
@<TRIPOS>BOND
     1    1    2 2
     2    1    3 1
     3    1    4 1
     4    1    8 1
     5    4   32 1
     6    5    6 2
     7    5    7 1
     8    5    8 1
     9    5   12 1
    10    8   33 1
    11    8   34 1
    12    9   10 2
    13    9   11 1
    14    9   12 1
    15    9   13 1
    16   11   35 1
    17   13   14 1
    18   14   15 1
    19   14   36 1
    20   14   37 1
    21   15   16 1
    22   15   17 1
    23   15   38 1
    24   16   21 1
    25   17   18 1
    26   17   19 1
    27   17   39 1
    28   18   40 1
    29   19   20 1
    30   19   21 1
    31   19   41 1
    32   20   42 1
    33   21   22 1
    34   21   43 1
    35   22   23 ar
    36   22   31 ar
    37   23   24 ar
    38   23   44 1
    39   24   25 ar
    40   25   26 ar
    41   25   31 ar
    42   26   27 1
    43   26   28 ar
    44   27   45 1
    45   27   46 1
    46   28   29 ar
    47   28   48 1
    48   29   30 ar
    49   29   47 1
    50   30   31 ar
@<TRIPOS>SUBSTRUCTURE
     1 ACP         1 GROUP 0 A     ****
@<TRIPOS>MOLECULE
[[5-(6-amino-1,8-dihydropurine-6,8-diylium-7-id-9-yl)-3,4-dihydroxy-tetrahydrofuran-2-yl]methoxy-hydroxy-phosphoryl]oxy-[[hydroxy(oxido)phosphoryl]methyl]phosphinate
   48    50     1     0     0
SMALL
USER_CHARGES

@<TRIPOS>ATOM
      1 PG          0.8254   -9.8945    3.7574 P.3       1 ACP         1.3752
      2 O1G         0.4042  -11.1810    3.0862 O.co2     1 ACP        -0.8816
      3 O2G         0.0100   -9.2590    4.8598 O.co2     1 ACP        -0.8816
      4 O3G         2.3789  -10.0196    4.2386 O.3       1 ACP        -0.7903
      5 PB          1.5736   -6.8826    2.7834 P.3       1 ACP         1.5257
      6 O1B         1.6478   -6.1697    1.4526 O.co2     1 ACP        -0.8730
      7 O2B         2.7537   -6.9403    3.7261 O.co2     1 ACP        -0.8730
      8 C3B         1.0567   -8.6222    2.4391 C.3       1 ACP        -0.5822
      9 PA         -0.0538   -5.0508    4.4639 P.3       1 ACP         1.7803
     10 O1A         0.8351   -4.8672    5.6593 O.2       1 ACP        -0.8736
     11 O2A        -1.6269   -5.1882    4.8167 O.3       1 ACP        -0.7984
     12 O3A         0.2529   -6.3730    3.5872 O.3       1 ACP        -0.7763
     13 O5'         0.0088   -3.8408    3.3906 O.3       1 ACP        -0.5927
     14 C5'        -0.7840   -3.8935    2.2172 C.3       1 ACP         0.1349
     15 C4'        -0.0724   -3.1466    1.1027 C.3       1 ACP         0.1151
     16 O4'        -0.8674   -3.1929   -0.0945 O.3       1 ACP        -0.3857
     17 C3'         0.1338   -1.6715    1.4027 C.3       1 ACP         0.0978
     18 O3'         1.2893   -1.4445    2.1808 O.3       1 ACP        -0.5800
     19 C2'         0.2158   -1.0724    0.0128 C.3       1 ACP         0.0885
     20 O2'         1.5141   -1.2448   -0.5513 O.3       1 ACP        -0.5877
     21 C1'        -0.7897   -1.9176   -0.7583 C.3       1 ACP         0.3822
     22 N9         -2.1040   -1.3333   -0.7704 N.pl3     1 ACP        -0.4391
     23 C8         -3.3877   -1.9383   -0.1859 C.ar      1 ACP         0.1869
     24 N7         -4.4144   -1.0952   -0.3898 N.2       1 ACP        -0.2730
     25 C5         -3.7988   -0.0622   -1.0459 C.ar      1 ACP        -0.1385
     26 C6         -4.5350    1.1514   -1.4997 C.ar      1 ACP         0.4818
     27 N6         -5.8346    1.2592   -1.2722 N.pl3     1 ACP        -0.8277
     28 N1         -3.7771    2.0576   -2.1221 N.pl3     1 ACP        -0.6982
     29 C2         -2.3607    1.8514   -2.3252 C.ar      1 ACP         0.6213
     30 N3         -1.7031    0.8030   -1.9377 N.ar      1 ACP        -0.5099
     31 C4         -2.4728   -0.1265   -1.3008 C.ar      1 ACP         0.2813
     32 HOG3        2.6153  -10.7259    4.8770 H         1 ACP         0.4118
     33 H3B1        0.1098   -8.5706    1.8921 H         1 ACP         0.0929
     34 H3B2        1.8038   -9.0264    1.7466 H         1 ACP         0.0929
     35 HOA2       -1.9207   -5.9249    5.3939 H         1 ACP         0.4544
     36 H5'1       -0.9363   -4.9413    1.9384 H         1 ACP         0.0887
     37 H5'2       -1.7563   -3.4348    2.4247 H         1 ACP         0.0887
     38 H4'         0.8883   -3.6448    0.8784 H         1 ACP         0.1198
     39 H3'        -0.7368   -1.2358    1.9871 H         1 ACP         0.0796
     40 HO3'        1.1625   -1.9325    3.0084 H         1 ACP         0.4356
     41 H2'        -0.0343   -0.0280    0.0196 H         1 ACP         0.0714
     42 HO2'        1.4978   -0.8409   -1.4361 H         1 ACP         0.4430
     43 H1'        -0.5175   -2.1046   -1.7826 H         1 ACP         0.1194
     44 H8         -3.5590   -2.8873    0.3318 H         1 ACP         0.2736
     45 HN61       -6.3278    0.5206   -0.7915 H         1 ACP         0.4770
     46 HN62       -6.3361    2.0806   -1.5783 H         1 ACP         0.4770
     47 H2         -1.8692    2.6833   -2.8525 H         1 ACP         0.0919
     48 H48        -4.2310    2.9046   -2.4517 H         1 ACP         0.4736
@<TRIPOS>BOND
     1    1    2 2
     2    1    3 1
     3    1    4 1
     4    1    8 1
     5    4   32 1
     6    5    6 2
     7    5    7 1
     8    5    8 1
     9    5   12 1
    10    8   33 1
    11    8   34 1
    12    9   10 2
    13    9   11 1
    14    9   12 1
    15    9   13 1
    16   11   35 1
    17   13   14 1
    18   14   15 1
    19   14   36 1
    20   14   37 1
    21   15   16 1
    22   15   17 1
    23   15   38 1
    24   16   21 1
    25   17   18 1
    26   17   19 1
    27   17   39 1
    28   18   40 1
    29   19   20 1
    30   19   21 1
    31   19   41 1
    32   20   42 1
    33   21   22 1
    34   21   43 1
    35   22   23 ar
    36   22   31 ar
    37   23   24 ar
    38   23   44 1
    39   24   25 ar
    40   25   26 ar
    41   25   31 ar
    42   26   27 1
    43   26   28 ar
    44   27   45 1
    45   27   46 1
    46   28   29 ar
    47   28   48 1
    48   29   30 ar
    49   29   47 1
    50   30   31 ar
@<TRIPOS>SUBSTRUCTURE
     1 ACP         1 GROUP 0 A     ****
@<TRIPOS>MOLECULE
[[5-(6-amino-1,8-dihydropurine-6,8-diylium-7-id-9-yl)-3,4-dihydroxy-tetrahydrofuran-2-yl]methoxy-hydroxy-phosphoryl]oxy-[[hydroxy(oxido)phosphoryl]methyl]phosphinate
   48    50     1     0     0
SMALL
USER_CHARGES

@<TRIPOS>ATOM
      1 PG          0.0211   -3.1827   -5.1971 P.3       1 ACP         1.3752
      2 O1G        -1.1724   -3.3055   -6.1153 O.co2     1 ACP        -0.8816
      3 O2G         0.0402   -2.2255   -4.0277 O.co2     1 ACP        -0.8816
      4 O3G         0.4653   -4.6669   -4.6868 O.3       1 ACP        -0.7903
      5 PB          3.1954   -2.5690   -5.5542 P.3       1 ACP         1.5257
      6 O1B         4.1109   -2.2827   -6.7223 O.co2     1 ACP        -0.8730
      7 O2B         3.4575   -3.7058   -4.5932 O.co2     1 ACP        -0.8730
      8 C3B         1.4974   -2.8073   -6.2411 C.3       1 ACP        -0.5822
      9 PA          3.9484   -0.1820   -3.9530 P.3       1 ACP         1.7803
     10 O1A         4.6731    0.7855   -4.8427 O.2       1 ACP        -0.8736
     11 O2A         4.9159   -1.1727   -3.1161 O.3       1 ACP        -0.7984
     12 O3A         2.9484   -1.1921   -4.7216 O.3       1 ACP        -0.7763
     13 O5'         3.0189    0.5129   -2.8246 O.3       1 ACP        -0.5927
     14 C5'         2.2816   -0.2918   -1.9206 C.3       1 ACP         0.1349
     15 C4'         2.7248    0.0226   -0.4980 C.3       1 ACP         0.1151
     16 O4'         2.4697    1.4219   -0.2462 O.3       1 ACP        -0.3857
     17 C3'         1.9404   -0.7419    0.5596 C.3       1 ACP         0.0978
     18 O3'         2.7418   -0.8086    1.7389 O.3       1 ACP        -0.5800
     19 C2'         0.7477    0.1630    0.7858 C.3       1 ACP         0.0885
     20 O2'         0.1373   -0.0577    2.0407 O.3       1 ACP        -0.5877
     21 C1'         1.3733    1.5427    0.6747 C.3       1 ACP         0.3822
     22 N9          0.4520    2.5240    0.1767 N.pl3     1 ACP        -0.4391
     23 C8         -0.7463    2.2774   -0.7501 C.ar      1 ACP         0.1869
     24 N7         -1.3714    3.4419   -0.9948 N.2       1 ACP        -0.2730
     25 C5         -0.6104    4.3223   -0.2722 C.ar      1 ACP        -0.1385
     26 C6         -0.9062    5.7820   -0.2194 C.ar      1 ACP         0.4818
     27 N6         -1.9385    6.2713   -0.8881 N.pl3     1 ACP        -0.8277
     28 N1         -0.0613    6.4906    0.5336 N.pl3     1 ACP        -0.6982
     29 C2          1.0416    5.8662    1.2291 C.ar      1 ACP         0.6213
     30 N3          1.3146    4.5989    1.1954 N.ar      1 ACP        -0.5099
     31 C4          0.4541    3.8697    0.4273 C.ar      1 ACP         0.2813
     32 HOG3       -0.1849   -5.2027   -4.1845 H         1 ACP         0.4118
     33 H3B1        1.2524   -1.9019   -6.8057 H         1 ACP         0.0929
     34 H3B2        1.5786   -3.6241   -6.9672 H         1 ACP         0.0929
     35 HOA2        4.5116   -1.8325   -2.5133 H         1 ACP         0.4544
     36 H5'1        1.2148   -0.0787   -2.0445 H         1 ACP         0.0887
     37 H5'2        2.4640   -1.3460   -2.1537 H         1 ACP         0.0887
     38 H4'         3.8046   -0.1390   -0.4012 H         1 ACP         0.1198
     39 H3'         1.6786   -1.7628    0.2719 H         1 ACP         0.0796
     40 HO3'        3.5553   -1.2733    1.4913 H         1 ACP         0.4356
     41 H2'         0.0002   -0.0084   -0.0014 H         1 ACP         0.0714
     42 HO2'        0.8091    0.1203    2.7213 H         1 ACP         0.4430
     43 H1'         1.7718    1.9211    1.6015 H         1 ACP         0.1194
     44 H8         -1.1244    1.3534   -1.1987 H         1 ACP         0.2736
     45 HN61       -2.5259    5.6573   -1.4336 H         1 ACP         0.4770
     46 HN62       -2.1416    7.2600   -0.8539 H         1 ACP         0.4770
     47 H2          1.6509    6.5764    1.8088 H         1 ACP         0.0919
     48 H48        -0.2190    7.4917    0.6033 H         1 ACP         0.4736
@<TRIPOS>BOND
     1    1    2 2
     2    1    3 1
     3    1    4 1
     4    1    8 1
     5    4   32 1
     6    5    6 2
     7    5    7 1
     8    5    8 1
     9    5   12 1
    10    8   33 1
    11    8   34 1
    12    9   10 2
    13    9   11 1
    14    9   12 1
    15    9   13 1
    16   11   35 1
    17   13   14 1
    18   14   15 1
    19   14   36 1
    20   14   37 1
    21   15   16 1
    22   15   17 1
    23   15   38 1
    24   16   21 1
    25   17   18 1
    26   17   19 1
    27   17   39 1
    28   18   40 1
    29   19   20 1
    30   19   21 1
    31   19   41 1
    32   20   42 1
    33   21   22 1
    34   21   43 1
    35   22   23 ar
    36   22   31 ar
    37   23   24 ar
    38   23   44 1
    39   24   25 ar
    40   25   26 ar
    41   25   31 ar
    42   26   27 1
    43   26   28 ar
    44   27   45 1
    45   27   46 1
    46   28   29 ar
    47   28   48 1
    48   29   30 ar
    49   29   47 1
    50   30   31 ar
@<TRIPOS>SUBSTRUCTURE
     1 ACP         1 GROUP 0 A     ****
@<TRIPOS>MOLECULE
[[5-(6-amino-1,8-dihydropurine-6,8-diylium-7-id-9-yl)-3,4-dihydroxy-tetrahydrofuran-2-yl]methoxy-hydroxy-phosphoryl]oxy-[[hydroxy(oxido)phosphoryl]methyl]phosphinate
   48    50     1     0     0
SMALL
USER_CHARGES

@<TRIPOS>ATOM
      1 PG          2.4351   -4.6404   -4.2746 P.3       1 ACP         1.3752
      2 O1G         1.4871   -5.4119   -5.1629 O.co2     1 ACP        -0.8816
      3 O2G         1.9432   -3.6674   -3.2280 O.co2     1 ACP        -0.8816
      4 O3G         3.4989   -5.6728   -3.5942 O.3       1 ACP        -0.7903
      5 PB          4.9613   -2.6416   -4.7256 P.3       1 ACP         1.5257
      6 O1B         5.6918   -2.0853   -5.9262 O.co2     1 ACP        -0.8730
      7 O2B         5.6787   -3.4075   -3.6378 O.co2     1 ACP        -0.8730
      8 C3B         3.6115   -3.7274   -5.3668 C.3       1 ACP        -0.5822
      9 PA          4.4222   -0.0245   -3.4263 P.3       1 ACP         1.7803
     10 O1A         5.0980    0.9267   -4.3703 O.2       1 ACP        -0.8736
     11 O2A         5.2971   -0.4013   -2.1184 O.3       1 ACP        -0.7984
     12 O3A         4.0545   -1.4640   -4.0615 O.3       1 ACP        -0.7763
     13 O5'         3.0189    0.5129   -2.8246 O.3       1 ACP        -0.5927
     14 C5'         2.2816   -0.2918   -1.9206 C.3       1 ACP         0.1349
     15 C4'         2.7248    0.0226   -0.4980 C.3       1 ACP         0.1151
     16 O4'         2.4697    1.4219   -0.2462 O.3       1 ACP        -0.3857
     17 C3'         1.9404   -0.7419    0.5596 C.3       1 ACP         0.0978
     18 O3'         2.7418   -0.8086    1.7389 O.3       1 ACP        -0.5800
     19 C2'         0.7477    0.1630    0.7858 C.3       1 ACP         0.0885
     20 O2'         0.1373   -0.0577    2.0407 O.3       1 ACP        -0.5877
     21 C1'         1.3733    1.5427    0.6747 C.3       1 ACP         0.3822
     22 N9          0.4520    2.5240    0.1767 N.pl3     1 ACP        -0.4391
     23 C8         -1.0660    2.5608    0.3999 C.ar      1 ACP         0.1869
     24 N7         -1.5852    3.6333   -0.2221 N.2       1 ACP        -0.2730
     25 C5         -0.4682    4.1996   -0.7771 C.ar      1 ACP        -0.1385
     26 C6         -0.5216    5.4476   -1.5899 C.ar      1 ACP         0.4818
     27 N6         -1.6813    6.0510   -1.7982 N.pl3     1 ACP        -0.8277
     28 N1          0.6621    5.8575   -2.0523 N.pl3     1 ACP        -0.6982
     29 C2          1.8795    5.1301   -1.7717 C.ar      1 ACP         0.6213
     30 N3          1.9458    4.0434   -1.0670 N.ar      1 ACP        -0.5099
     31 C4          0.7388    3.6199   -0.5917 C.ar      1 ACP         0.2813
     32 HOG3        3.1528   -6.3942   -3.0267 H         1 ACP         0.4118
     33 H3B1        2.9982   -3.1129   -6.0335 H         1 ACP         0.0929
     34 H3B2        4.1036   -4.4821   -5.9908 H         1 ACP         0.0929
     35 HOA2        6.1695   -0.8331   -2.2399 H         1 ACP         0.4544
     36 H5'1        1.2148   -0.0787   -2.0445 H         1 ACP         0.0887
     37 H5'2        2.4640   -1.3460   -2.1537 H         1 ACP         0.0887
     38 H4'         3.8046   -0.1390   -0.4012 H         1 ACP         0.1198
     39 H3'         1.6786   -1.7628    0.2719 H         1 ACP         0.0796
     40 HO3'        2.2231   -1.2979    2.3952 H         1 ACP         0.4356
     41 H2'         0.0002   -0.0084   -0.0014 H         1 ACP         0.0714
     42 HO2'       -0.1554   -0.9852    2.0577 H         1 ACP         0.4430
     43 H1'         1.7718    1.9211    1.6015 H         1 ACP         0.1194
     44 H8         -1.7235    1.8833    0.9537 H         1 ACP         0.2736
     45 HN61       -2.5296    5.6672   -1.4072 H         1 ACP         0.4770
     46 HN62       -1.7205    6.8969   -2.3483 H         1 ACP         0.4770
     47 H2          2.7750    5.5878   -2.2190 H         1 ACP         0.0919
     48 H48         0.6808    6.7046   -2.6128 H         1 ACP         0.4736
@<TRIPOS>BOND
     1    1    2 2
     2    1    3 1
     3    1    4 1
     4    1    8 1
     5    4   32 1
     6    5    6 2
     7    5    7 1
     8    5    8 1
     9    5   12 1
    10    8   33 1
    11    8   34 1
    12    9   10 2
    13    9   11 1
    14    9   12 1
    15    9   13 1
    16   11   35 1
    17   13   14 1
    18   14   15 1
    19   14   36 1
    20   14   37 1
    21   15   16 1
    22   15   17 1
    23   15   38 1
    24   16   21 1
    25   17   18 1
    26   17   19 1
    27   17   39 1
    28   18   40 1
    29   19   20 1
    30   19   21 1
    31   19   41 1
    32   20   42 1
    33   21   22 1
    34   21   43 1
    35   22   23 ar
    36   22   31 ar
    37   23   24 ar
    38   23   44 1
    39   24   25 ar
    40   25   26 ar
    41   25   31 ar
    42   26   27 1
    43   26   28 ar
    44   27   45 1
    45   27   46 1
    46   28   29 ar
    47   28   48 1
    48   29   30 ar
    49   29   47 1
    50   30   31 ar
@<TRIPOS>SUBSTRUCTURE
     1 ACP         1 GROUP 0 A     ****
@<TRIPOS>MOLECULE
[[5-(6-amino-1,8-dihydropurine-6,8-diylium-7-id-9-yl)-3,4-dihydroxy-tetrahydrofuran-2-yl]methoxy-hydroxy-phosphoryl]oxy-[[hydroxy(oxido)phosphoryl]methyl]phosphinate
   48    50     1     0     0
SMALL
USER_CHARGES

@<TRIPOS>ATOM
      1 PG          5.3284   -4.1983   -5.9743 P.3       1 ACP         1.3752
      2 O1G         5.3652   -5.7087   -5.9733 O.co2     1 ACP        -0.8816
      3 O2G         6.3157   -3.3699   -5.1847 O.co2     1 ACP        -0.8816
      4 O3G         5.2814   -3.6599   -7.5133 O.3       1 ACP        -0.7903
      5 PB          3.1129   -1.9106   -5.3122 P.3       1 ACP         1.5257
      6 O1B         1.6681   -1.9089   -4.8683 O.co2     1 ACP        -0.8730
      7 O2B         3.5639   -1.2016   -6.5686 O.co2     1 ACP        -0.8730
      8 C3B         3.6339   -3.6768   -5.4579 C.3       1 ACP        -0.5822
      9 PA          4.4222   -0.0245   -3.4263 P.3       1 ACP         1.7803
     10 O1A         5.0980    0.9267   -4.3703 O.2       1 ACP        -0.8736
     11 O2A         5.2971   -0.4013   -2.1184 O.3       1 ACP        -0.7984
     12 O3A         4.0545   -1.4640   -4.0615 O.3       1 ACP        -0.7763
     13 O5'         3.0189    0.5129   -2.8246 O.3       1 ACP        -0.5927
     14 C5'         2.2816   -0.2918   -1.9206 C.3       1 ACP         0.1349
     15 C4'         2.7248    0.0226   -0.4980 C.3       1 ACP         0.1151
     16 O4'         2.4697    1.4219   -0.2462 O.3       1 ACP        -0.3857
     17 C3'         1.9404   -0.7419    0.5596 C.3       1 ACP         0.0978
     18 O3'         2.7418   -0.8086    1.7389 O.3       1 ACP        -0.5800
     19 C2'         0.7477    0.1630    0.7858 C.3       1 ACP         0.0885
     20 O2'         0.1373   -0.0577    2.0407 O.3       1 ACP        -0.5877
     21 C1'         1.3733    1.5427    0.6747 C.3       1 ACP         0.3822
     22 N9          0.4520    2.5240    0.1767 N.pl3     1 ACP        -0.4391
     23 C8         -0.7463    2.2774   -0.7501 C.ar      1 ACP         0.1869
     24 N7         -1.3714    3.4419   -0.9948 N.2       1 ACP        -0.2730
     25 C5         -0.6104    4.3223   -0.2722 C.ar      1 ACP        -0.1385
     26 C6         -0.9062    5.7820   -0.2194 C.ar      1 ACP         0.4818
     27 N6         -1.9385    6.2713   -0.8881 N.pl3     1 ACP        -0.8277
     28 N1         -0.0613    6.4906    0.5336 N.pl3     1 ACP        -0.6982
     29 C2          1.0416    5.8662    1.2291 C.ar      1 ACP         0.6213
     30 N3          1.3146    4.5989    1.1954 N.ar      1 ACP        -0.5099
     31 C4          0.4541    3.8697    0.4273 C.ar      1 ACP         0.2813
     32 HOG3        6.0210   -3.8942   -8.1135 H         1 ACP         0.4118
     33 H3B1        3.4517   -4.1438   -4.4847 H         1 ACP         0.0929
     34 H3B2        2.9383   -4.1378   -6.1683 H         1 ACP         0.0929
     35 HOA2        6.1695   -0.8331   -2.2399 H         1 ACP         0.4544
     36 H5'1        1.2148   -0.0787   -2.0445 H         1 ACP         0.0887
     37 H5'2        2.4640   -1.3460   -2.1537 H         1 ACP         0.0887
     38 H4'         3.8046   -0.1390   -0.4012 H         1 ACP         0.1198
     39 H3'         1.6786   -1.7628    0.2719 H         1 ACP         0.0796
     40 HO3'        2.2231   -1.2979    2.3952 H         1 ACP         0.4356
     41 H2'         0.0002   -0.0084   -0.0014 H         1 ACP         0.0714
     42 HO2'       -0.6132    0.5577    2.1063 H         1 ACP         0.4430
     43 H1'         1.7718    1.9211    1.6015 H         1 ACP         0.1194
     44 H8         -1.1244    1.3534   -1.1987 H         1 ACP         0.2736
     45 HN61       -2.5259    5.6573   -1.4336 H         1 ACP         0.4770
     46 HN62       -2.1416    7.2600   -0.8539 H         1 ACP         0.4770
     47 H2          1.6509    6.5764    1.8088 H         1 ACP         0.0919
     48 H48        -0.2190    7.4917    0.6033 H         1 ACP         0.4736
@<TRIPOS>BOND
     1    1    2 2
     2    1    3 1
     3    1    4 1
     4    1    8 1
     5    4   32 1
     6    5    6 2
     7    5    7 1
     8    5    8 1
     9    5   12 1
    10    8   33 1
    11    8   34 1
    12    9   10 2
    13    9   11 1
    14    9   12 1
    15    9   13 1
    16   11   35 1
    17   13   14 1
    18   14   15 1
    19   14   36 1
    20   14   37 1
    21   15   16 1
    22   15   17 1
    23   15   38 1
    24   16   21 1
    25   17   18 1
    26   17   19 1
    27   17   39 1
    28   18   40 1
    29   19   20 1
    30   19   21 1
    31   19   41 1
    32   20   42 1
    33   21   22 1
    34   21   43 1
    35   22   23 ar
    36   22   31 ar
    37   23   24 ar
    38   23   44 1
    39   24   25 ar
    40   25   26 ar
    41   25   31 ar
    42   26   27 1
    43   26   28 ar
    44   27   45 1
    45   27   46 1
    46   28   29 ar
    47   28   48 1
    48   29   30 ar
    49   29   47 1
    50   30   31 ar
@<TRIPOS>SUBSTRUCTURE
     1 ACP         1 GROUP 0 A     ****
@<TRIPOS>MOLECULE
[[5-(6-amino-1,8-dihydropurine-6,8-diylium-7-id-9-yl)-3,4-dihydroxy-tetrahydrofuran-2-yl]methoxy-hydroxy-phosphoryl]oxy-[[hydroxy(oxido)phosphoryl]methyl]phosphinate
   48    50     1     0     0
SMALL
USER_CHARGES

@<TRIPOS>ATOM
      1 PG         -2.0532   -1.0931   -6.1028 P.3       1 ACP         1.3752
      2 O1G        -2.8994    0.0777   -6.5453 O.co2     1 ACP        -0.8816
      3 O2G        -2.3993   -1.9204   -4.8862 O.co2     1 ACP        -0.8816
      4 O3G        -1.7944   -2.0834   -7.3729 O.3       1 ACP        -0.7903
      5 PB          1.0746   -1.5668   -5.3458 P.3       1 ACP         1.5257
      6 O1B         2.3104   -0.6986   -5.2872 O.co2     1 ACP        -0.8730
      7 O2B         1.0200   -2.8240   -6.1829 O.co2     1 ACP        -0.8730
      8 C3B        -0.3234   -0.4852   -5.8824 C.3       1 ACP        -0.5822
      9 PA          1.2934   -2.6382   -2.5830 P.3       1 ACP         1.7803
     10 O1A         1.6893   -4.0627   -2.8416 O.2       1 ACP        -0.8736
     11 O2A         0.2334   -2.4486   -1.3754 O.3       1 ACP        -0.7984
     12 O3A         0.5822   -1.8950   -3.8292 O.3       1 ACP        -0.7763
     13 O5'         2.5233   -1.6621   -2.1894 O.3       1 ACP        -0.5927
     14 C5'         2.2816   -0.2918   -1.9206 C.3       1 ACP         0.1349
     15 C4'         2.7248    0.0226   -0.4980 C.3       1 ACP         0.1151
     16 O4'         2.4697    1.4219   -0.2462 O.3       1 ACP        -0.3857
     17 C3'         1.9404   -0.7419    0.5596 C.3       1 ACP         0.0978
     18 O3'         2.7418   -0.8086    1.7389 O.3       1 ACP        -0.5800
     19 C2'         0.7477    0.1630    0.7858 C.3       1 ACP         0.0885
     20 O2'         0.1373   -0.0577    2.0407 O.3       1 ACP        -0.5877
     21 C1'         1.3733    1.5427    0.6747 C.3       1 ACP         0.3822
     22 N9          0.4520    2.5240    0.1767 N.pl3     1 ACP        -0.4391
     23 C8         -1.0660    2.5608    0.3999 C.ar      1 ACP         0.1869
     24 N7         -1.5852    3.6333   -0.2221 N.2       1 ACP        -0.2730
     25 C5         -0.4682    4.1996   -0.7771 C.ar      1 ACP        -0.1385
     26 C6         -0.5216    5.4476   -1.5899 C.ar      1 ACP         0.4818
     27 N6         -1.6813    6.0510   -1.7982 N.pl3     1 ACP        -0.8277
     28 N1          0.6621    5.8575   -2.0523 N.pl3     1 ACP        -0.6982
     29 C2          1.8795    5.1301   -1.7717 C.ar      1 ACP         0.6213
     30 N3          1.9458    4.0434   -1.0670 N.ar      1 ACP        -0.5099
     31 C4          0.7388    3.6199   -0.5917 C.ar      1 ACP         0.2813
     32 HOG3       -2.5704   -2.4870   -7.8169 H         1 ACP         0.4118
     33 H3B1       -0.3773    0.3431   -5.1687 H         1 ACP         0.0929
     34 H3B2       -0.0206   -0.0580   -6.8451 H         1 ACP         0.0929
     35 HOA2       -0.6421   -2.8862   -1.4401 H         1 ACP         0.4544
     36 H5'1        2.8428    0.3151   -2.6386 H         1 ACP         0.0887
     37 H5'2        1.2124   -0.0895   -2.0416 H         1 ACP         0.0887
     38 H4'         3.8046   -0.1390   -0.4012 H         1 ACP         0.1198
     39 H3'         1.6786   -1.7628    0.2719 H         1 ACP         0.0796
     40 HO3'        2.2231   -1.2979    2.3952 H         1 ACP         0.4356
     41 H2'         0.0002   -0.0084   -0.0014 H         1 ACP         0.0714
     42 HO2'       -0.1554   -0.9852    2.0577 H         1 ACP         0.4430
     43 H1'         1.7718    1.9211    1.6015 H         1 ACP         0.1194
     44 H8         -1.7235    1.8833    0.9537 H         1 ACP         0.2736
     45 HN61       -2.5296    5.6672   -1.4072 H         1 ACP         0.4770
     46 HN62       -1.7205    6.8969   -2.3483 H         1 ACP         0.4770
     47 H2          2.7750    5.5878   -2.2190 H         1 ACP         0.0919
     48 H48         0.6808    6.7046   -2.6128 H         1 ACP         0.4736
@<TRIPOS>BOND
     1    1    2 2
     2    1    3 1
     3    1    4 1
     4    1    8 1
     5    4   32 1
     6    5    6 2
     7    5    7 1
     8    5    8 1
     9    5   12 1
    10    8   33 1
    11    8   34 1
    12    9   10 2
    13    9   11 1
    14    9   12 1
    15    9   13 1
    16   11   35 1
    17   13   14 1
    18   14   15 1
    19   14   36 1
    20   14   37 1
    21   15   16 1
    22   15   17 1
    23   15   38 1
    24   16   21 1
    25   17   18 1
    26   17   19 1
    27   17   39 1
    28   18   40 1
    29   19   20 1
    30   19   21 1
    31   19   41 1
    32   20   42 1
    33   21   22 1
    34   21   43 1
    35   22   23 ar
    36   22   31 ar
    37   23   24 ar
    38   23   44 1
    39   24   25 ar
    40   25   26 ar
    41   25   31 ar
    42   26   27 1
    43   26   28 ar
    44   27   45 1
    45   27   46 1
    46   28   29 ar
    47   28   48 1
    48   29   30 ar
    49   29   47 1
    50   30   31 ar
@<TRIPOS>SUBSTRUCTURE
     1 ACP         1 GROUP 0 A     ****
@<TRIPOS>MOLECULE
[[5-(6-amino-1,8-dihydropurine-6,8-diylium-7-id-9-yl)-3,4-dihydroxy-tetrahydrofuran-2-yl]methoxy-hydroxy-phosphoryl]oxy-[[hydroxy(oxido)phosphoryl]methyl]phosphinate
   48    50     1     0     0
SMALL
USER_CHARGES

@<TRIPOS>ATOM
      1 PG          1.7095   -4.9949    7.6479 P.3       1 ACP         1.3752
      2 O1G         1.8304   -3.8812    8.6617 O.co2     1 ACP        -0.8816
      3 O2G         2.7551   -5.2282    6.5819 O.co2     1 ACP        -0.8816
      4 O3G         1.4044   -6.3985    8.4209 O.3       1 ACP        -0.7903
      5 PB         -0.5077   -5.9415    5.4642 P.3       1 ACP         1.5257
      6 O1B        -1.8684   -5.4475    5.0294 O.co2     1 ACP        -0.8730
      7 O2B        -0.2886   -7.3557    5.9505 O.co2     1 ACP        -0.8730
      8 C3B         0.0839   -4.8030    6.7931 C.3       1 ACP        -0.5822
      9 PA          0.7053   -5.9950    2.7523 P.3       1 ACP         1.7803
     10 O1A         0.8115   -7.4703    2.4976 O.2       1 ACP        -0.8736
     11 O2A         1.9734   -5.1349    2.2327 O.3       1 ACP        -0.7984
     12 O3A         0.5827   -5.5827    4.3098 O.3       1 ACP        -0.7763
     13 O5'        -0.5703   -5.2848    2.0532 O.3       1 ACP        -0.5927
     14 C5'        -0.7840   -3.8935    2.2172 C.3       1 ACP         0.1349
     15 C4'        -0.0724   -3.1466    1.1027 C.3       1 ACP         0.1151
     16 O4'        -0.8674   -3.1929   -0.0945 O.3       1 ACP        -0.3857
     17 C3'         0.1338   -1.6715    1.4027 C.3       1 ACP         0.0978
     18 O3'         1.2893   -1.4445    2.1808 O.3       1 ACP        -0.5800
     19 C2'         0.2158   -1.0724    0.0128 C.3       1 ACP         0.0885
     20 O2'         1.5141   -1.2448   -0.5513 O.3       1 ACP        -0.5877
     21 C1'        -0.7897   -1.9176   -0.7583 C.3       1 ACP         0.3822
     22 N9         -2.1040   -1.3333   -0.7704 N.pl3     1 ACP        -0.4391
     23 C8         -3.2124   -1.5345    0.2719 C.ar      1 ACP         0.1869
     24 N7         -4.2964   -0.8234   -0.0828 N.2       1 ACP        -0.2730
     25 C5         -3.8754   -0.2386   -1.2478 C.ar      1 ACP        -0.1385
     26 C6         -4.7432    0.6719   -2.0470 C.ar      1 ACP         0.4818
     27 N6         -5.9725    0.9415   -1.6366 N.pl3     1 ACP        -0.8277
     28 N1         -4.1703    1.1517   -3.1536 N.pl3     1 ACP        -0.6982
     29 C2         -2.8174    0.7994   -3.5215 C.ar      1 ACP         0.6213
     30 N3         -2.0475    0.0097   -2.8393 N.ar      1 ACP        -0.5099
     31 C4         -2.6278   -0.4836   -1.7071 C.ar      1 ACP         0.2813
     32 HOG3        2.0587   -6.7236    9.0755 H         1 ACP         0.4118
     33 H3B1        0.0746   -3.7919    6.3735 H         1 ACP         0.0929
     34 H3B2       -0.6826   -4.8307    7.5759 H         1 ACP         0.0929
     35 HOA2        2.8620   -5.3328    2.5977 H         1 ACP         0.4544
     36 H5'1       -1.8600   -3.6934    2.1849 H         1 ACP         0.0887
     37 H5'2       -0.3935   -3.5869    3.1930 H         1 ACP         0.0887
     38 H4'         0.8883   -3.6448    0.8784 H         1 ACP         0.1198
     39 H3'        -0.7368   -1.2358    1.9871 H         1 ACP         0.0796
     40 HO3'        1.3407   -0.4871    2.3218 H         1 ACP         0.4356
     41 H2'        -0.0343   -0.0280    0.0196 H         1 ACP         0.0714
     42 HO2'        2.1443   -0.7955    0.0378 H         1 ACP         0.4430
     43 H1'        -0.5175   -2.1046   -1.7826 H         1 ACP         0.1194
     44 H8         -3.2310   -2.1319    1.1889 H         1 ACP         0.2736
     45 HN61       -6.3230    0.5316   -0.7829 H         1 ACP         0.4770
     46 HN62       -6.5628    1.5584   -2.1760 H         1 ACP         0.4770
     47 H2         -2.4822    1.2710   -4.4579 H         1 ACP         0.0919
     48 H48        -4.7200    1.7780   -3.7346 H         1 ACP         0.4736
@<TRIPOS>BOND
     1    1    2 2
     2    1    3 1
     3    1    4 1
     4    1    8 1
     5    4   32 1
     6    5    6 2
     7    5    7 1
     8    5    8 1
     9    5   12 1
    10    8   33 1
    11    8   34 1
    12    9   10 2
    13    9   11 1
    14    9   12 1
    15    9   13 1
    16   11   35 1
    17   13   14 1
    18   14   15 1
    19   14   36 1
    20   14   37 1
    21   15   16 1
    22   15   17 1
    23   15   38 1
    24   16   21 1
    25   17   18 1
    26   17   19 1
    27   17   39 1
    28   18   40 1
    29   19   20 1
    30   19   21 1
    31   19   41 1
    32   20   42 1
    33   21   22 1
    34   21   43 1
    35   22   23 ar
    36   22   31 ar
    37   23   24 ar
    38   23   44 1
    39   24   25 ar
    40   25   26 ar
    41   25   31 ar
    42   26   27 1
    43   26   28 ar
    44   27   45 1
    45   27   46 1
    46   28   29 ar
    47   28   48 1
    48   29   30 ar
    49   29   47 1
    50   30   31 ar
@<TRIPOS>SUBSTRUCTURE
     1 ACP         1 GROUP 0 A     ****
@<TRIPOS>MOLECULE
[[5-(6-amino-1,8-dihydropurine-6,8-diylium-7-id-9-yl)-3,4-dihydroxy-tetrahydrofuran-2-yl]methoxy-hydroxy-phosphoryl]oxy-[[hydroxy(oxido)phosphoryl]methyl]phosphinate
   48    50     1     0     0
SMALL
USER_CHARGES

@<TRIPOS>ATOM
      1 PG          6.9626    1.4055   -1.0382 P.3       1 ACP         1.3752
      2 O1G         7.3611    2.2687    0.1360 O.co2     1 ACP        -0.8816
      3 O2G         5.6530    1.5965   -1.7681 O.co2     1 ACP        -0.8816
      4 O3G         8.1828    1.3678   -2.1199 O.3       1 ACP        -0.7903
      5 PB          6.6313   -1.7823   -1.5938 P.3       1 ACP         1.5257
      6 O1B         6.8130   -3.0411   -0.7771 O.co2     1 ACP        -0.8730
      7 O2B         7.3602   -1.5648   -2.8999 O.co2     1 ACP        -0.8730
      8 C3B         7.0371   -0.3568   -0.4914 C.3       1 ACP        -0.5822
      9 PA          3.9434   -2.1258   -2.8126 P.3       1 ACP         1.7803
     10 O1A         4.0658   -3.6032   -3.0475 O.2       1 ACP        -0.8736
     11 O2A         4.1069   -1.2223   -4.1449 O.3       1 ACP        -0.7984
     12 O3A         5.0402   -1.5068   -1.8003 O.3       1 ACP        -0.7763
     13 O5'         2.5233   -1.6621   -2.1894 O.3       1 ACP        -0.5927
     14 C5'         2.2816   -0.2918   -1.9206 C.3       1 ACP         0.1349
     15 C4'         2.7248    0.0226   -0.4980 C.3       1 ACP         0.1151
     16 O4'         2.4697    1.4219   -0.2462 O.3       1 ACP        -0.3857
     17 C3'         1.9404   -0.7419    0.5596 C.3       1 ACP         0.0978
     18 O3'         2.7418   -0.8086    1.7389 O.3       1 ACP        -0.5800
     19 C2'         0.7477    0.1630    0.7858 C.3       1 ACP         0.0885
     20 O2'         0.1373   -0.0577    2.0407 O.3       1 ACP        -0.5877
     21 C1'         1.3733    1.5427    0.6747 C.3       1 ACP         0.3822
     22 N9          0.4520    2.5240    0.1767 N.pl3     1 ACP        -0.4391
     23 C8         -0.4598    3.4379    1.0068 C.ar      1 ACP         0.1869
     24 N7         -1.1770    4.2228    0.1845 N.2       1 ACP        -0.2730
     25 C5         -0.7330    3.8149   -1.0455 C.ar      1 ACP        -0.1385
     26 C6         -1.2413    4.4029   -2.3169 C.ar      1 ACP         0.4818
     27 N6         -2.1578    5.3575   -2.2832 N.pl3     1 ACP        -0.8277
     28 N1         -0.6977    3.8860   -3.4216 N.pl3     1 ACP        -0.6982
     29 C2          0.3002    2.8419   -3.3591 C.ar      1 ACP         0.6213
     30 N3          0.7548    2.3183   -2.2631 N.ar      1 ACP        -0.5099
     31 C4          0.2027    2.8430   -1.1309 C.ar      1 ACP         0.2813
     32 HOG3        8.4808    2.2132   -2.5184 H         1 ACP         0.4118
     33 H3B1        6.3839   -0.4350    0.3836 H         1 ACP         0.0929
     34 H3B2        8.0613   -0.5292   -0.1416 H         1 ACP         0.0929
     35 HOA2        4.9458   -1.2710   -4.6507 H         1 ACP         0.4544
     36 H5'1        2.8428    0.3151   -2.6386 H         1 ACP         0.0887
     37 H5'2        1.2124   -0.0895   -2.0416 H         1 ACP         0.0887
     38 H4'         3.8046   -0.1390   -0.4012 H         1 ACP         0.1198
     39 H3'         1.6786   -1.7628    0.2719 H         1 ACP         0.0796
     40 HO3'        2.2231   -1.2979    2.3952 H         1 ACP         0.4356
     41 H2'         0.0002   -0.0084   -0.0014 H         1 ACP         0.0714
     42 HO2'       -0.6132    0.5577    2.1063 H         1 ACP         0.4430
     43 H1'         1.7718    1.9211    1.6015 H         1 ACP         0.1194
     44 H8         -0.5892    3.5248    2.0902 H         1 ACP         0.2736
     45 HN61       -2.5128    5.6880   -1.3974 H         1 ACP         0.4770
     46 HN62       -2.5040    5.7581   -3.1431 H         1 ACP         0.4770
     47 H2          0.6550    2.5166   -4.3490 H         1 ACP         0.0919
     48 H48        -1.0101    4.2527   -4.3160 H         1 ACP         0.4736
@<TRIPOS>BOND
     1    1    2 2
     2    1    3 1
     3    1    4 1
     4    1    8 1
     5    4   32 1
     6    5    6 2
     7    5    7 1
     8    5    8 1
     9    5   12 1
    10    8   33 1
    11    8   34 1
    12    9   10 2
    13    9   11 1
    14    9   12 1
    15    9   13 1
    16   11   35 1
    17   13   14 1
    18   14   15 1
    19   14   36 1
    20   14   37 1
    21   15   16 1
    22   15   17 1
    23   15   38 1
    24   16   21 1
    25   17   18 1
    26   17   19 1
    27   17   39 1
    28   18   40 1
    29   19   20 1
    30   19   21 1
    31   19   41 1
    32   20   42 1
    33   21   22 1
    34   21   43 1
    35   22   23 ar
    36   22   31 ar
    37   23   24 ar
    38   23   44 1
    39   24   25 ar
    40   25   26 ar
    41   25   31 ar
    42   26   27 1
    43   26   28 ar
    44   27   45 1
    45   27   46 1
    46   28   29 ar
    47   28   48 1
    48   29   30 ar
    49   29   47 1
    50   30   31 ar
@<TRIPOS>SUBSTRUCTURE
     1 ACP         1 GROUP 0 A     ****
@<TRIPOS>MOLECULE
[[5-(6-amino-1,8-dihydropurine-6,8-diylium-7-id-9-yl)-3,4-dihydroxy-tetrahydrofuran-2-yl]methoxy-hydroxy-phosphoryl]oxy-[[hydroxy(oxido)phosphoryl]methyl]phosphinate
   48    50     1     0     0
SMALL
USER_CHARGES

@<TRIPOS>ATOM
      1 PG         -0.1071   -3.4604    7.0987 P.3       1 ACP         1.3752
      2 O1G        -1.0158   -3.3704    8.3025 O.co2     1 ACP        -0.8816
      3 O2G        -0.5381   -2.9874    5.7295 O.co2     1 ACP        -0.8816
      4 O3G         1.3412   -2.8055    7.4648 O.3       1 ACP        -0.7903
      5 PB          1.5569   -5.8151    5.5932 P.3       1 ACP         1.5257
      6 O1B         1.7504   -7.2992    5.8044 O.co2     1 ACP        -0.8730
      7 O2B         2.7250   -4.8583    5.5266 O.co2     1 ACP        -0.8730
      8 C3B         0.4307   -5.2190    6.9305 C.3       1 ACP        -0.5822
      9 PA          0.7053   -5.9950    2.7523 P.3       1 ACP         1.7803
     10 O1A         0.8115   -7.4703    2.4976 O.2       1 ACP        -0.8736
     11 O2A         1.9734   -5.1349    2.2327 O.3       1 ACP        -0.7984
     12 O3A         0.5827   -5.5827    4.3098 O.3       1 ACP        -0.7763
     13 O5'        -0.5703   -5.2848    2.0532 O.3       1 ACP        -0.5927
     14 C5'        -0.7840   -3.8935    2.2172 C.3       1 ACP         0.1349
     15 C4'        -0.0724   -3.1466    1.1027 C.3       1 ACP         0.1151
     16 O4'        -0.8674   -3.1929   -0.0945 O.3       1 ACP        -0.3857
     17 C3'         0.1338   -1.6715    1.4027 C.3       1 ACP         0.0978
     18 O3'         1.2893   -1.4445    2.1808 O.3       1 ACP        -0.5800
     19 C2'         0.2158   -1.0724    0.0128 C.3       1 ACP         0.0885
     20 O2'         1.5141   -1.2448   -0.5513 O.3       1 ACP        -0.5877
     21 C1'        -0.7897   -1.9176   -0.7583 C.3       1 ACP         0.3822
     22 N9         -2.1040   -1.3333   -0.7704 N.pl3     1 ACP        -0.4391
     23 C8         -3.2124   -1.5345    0.2719 C.ar      1 ACP         0.1869
     24 N7         -4.2964   -0.8234   -0.0828 N.2       1 ACP        -0.2730
     25 C5         -3.8754   -0.2386   -1.2478 C.ar      1 ACP        -0.1385
     26 C6         -4.7432    0.6719   -2.0470 C.ar      1 ACP         0.4818
     27 N6         -5.9725    0.9415   -1.6366 N.pl3     1 ACP        -0.8277
     28 N1         -4.1703    1.1517   -3.1536 N.pl3     1 ACP        -0.6982
     29 C2         -2.8174    0.7994   -3.5215 C.ar      1 ACP         0.6213
     30 N3         -2.0475    0.0097   -2.8393 N.ar      1 ACP        -0.5099
     31 C4         -2.6278   -0.4836   -1.7071 C.ar      1 ACP         0.2813
     32 HOG3        1.3735   -1.8630    7.7348 H         1 ACP         0.4118
     33 H3B1       -0.4849   -5.8156    6.8652 H         1 ACP         0.0929
     34 H3B2        0.9184   -5.4851    7.8751 H         1 ACP         0.0929
     35 HOA2        2.8620   -5.3328    2.5977 H         1 ACP         0.4544
     36 H5'1       -1.8600   -3.6934    2.1849 H         1 ACP         0.0887
     37 H5'2       -0.3935   -3.5869    3.1930 H         1 ACP         0.0887
     38 H4'         0.8883   -3.6448    0.8784 H         1 ACP         0.1198
     39 H3'        -0.7368   -1.2358    1.9871 H         1 ACP         0.0796
     40 HO3'        1.3407   -0.4871    2.3218 H         1 ACP         0.4356
     41 H2'        -0.0343   -0.0280    0.0196 H         1 ACP         0.0714
     42 HO2'        2.1443   -0.7955    0.0378 H         1 ACP         0.4430
     43 H1'        -0.5175   -2.1046   -1.7826 H         1 ACP         0.1194
     44 H8         -3.2310   -2.1319    1.1889 H         1 ACP         0.2736
     45 HN61       -6.3230    0.5316   -0.7829 H         1 ACP         0.4770
     46 HN62       -6.5628    1.5584   -2.1760 H         1 ACP         0.4770
     47 H2         -2.4822    1.2710   -4.4579 H         1 ACP         0.0919
     48 H48        -4.7200    1.7780   -3.7346 H         1 ACP         0.4736
@<TRIPOS>BOND
     1    1    2 2
     2    1    3 1
     3    1    4 1
     4    1    8 1
     5    4   32 1
     6    5    6 2
     7    5    7 1
     8    5    8 1
     9    5   12 1
    10    8   33 1
    11    8   34 1
    12    9   10 2
    13    9   11 1
    14    9   12 1
    15    9   13 1
    16   11   35 1
    17   13   14 1
    18   14   15 1
    19   14   36 1
    20   14   37 1
    21   15   16 1
    22   15   17 1
    23   15   38 1
    24   16   21 1
    25   17   18 1
    26   17   19 1
    27   17   39 1
    28   18   40 1
    29   19   20 1
    30   19   21 1
    31   19   41 1
    32   20   42 1
    33   21   22 1
    34   21   43 1
    35   22   23 ar
    36   22   31 ar
    37   23   24 ar
    38   23   44 1
    39   24   25 ar
    40   25   26 ar
    41   25   31 ar
    42   26   27 1
    43   26   28 ar
    44   27   45 1
    45   27   46 1
    46   28   29 ar
    47   28   48 1
    48   29   30 ar
    49   29   47 1
    50   30   31 ar
@<TRIPOS>SUBSTRUCTURE
     1 ACP         1 GROUP 0 A     ****
@<TRIPOS>MOLECULE
[[5-(6-amino-1,8-dihydropurine-6,8-diylium-7-id-9-yl)-3,4-dihydroxy-tetrahydrofuran-2-yl]methoxy-hydroxy-phosphoryl]oxy-[[hydroxy(oxido)phosphoryl]methyl]phosphinate
   48    50     1     0     0
SMALL
USER_CHARGES

@<TRIPOS>ATOM
      1 PG         -1.2492    1.0110   -4.8086 P.3       1 ACP         1.3752
      2 O1G        -1.2850    2.0582   -5.8971 O.co2     1 ACP        -0.8816
      3 O2G        -0.3319    1.1258   -3.6129 O.co2     1 ACP        -0.8816
      4 O3G        -2.7686    0.7118   -4.2964 O.3       1 ACP        -0.7903
      5 PB         -0.7776   -2.2044   -4.6690 P.3       1 ACP         1.5257
      6 O1B        -0.4983   -3.2953   -5.6772 O.co2     1 ACP        -0.8730
      7 O2B        -1.9559   -2.2712   -3.7248 O.co2     1 ACP        -0.8730
      8 C3B        -0.9118   -0.6193   -5.6079 C.3       1 ACP        -0.5822
      9 PA          1.2934   -2.6382   -2.5830 P.3       1 ACP         1.7803
     10 O1A         1.6893   -4.0627   -2.8416 O.2       1 ACP        -0.8736
     11 O2A         0.2334   -2.4486   -1.3754 O.3       1 ACP        -0.7984
     12 O3A         0.5822   -1.8950   -3.8292 O.3       1 ACP        -0.7763
     13 O5'         2.5233   -1.6621   -2.1894 O.3       1 ACP        -0.5927
     14 C5'         2.2816   -0.2918   -1.9206 C.3       1 ACP         0.1349
     15 C4'         2.7248    0.0226   -0.4980 C.3       1 ACP         0.1151
     16 O4'         2.4697    1.4219   -0.2462 O.3       1 ACP        -0.3857
     17 C3'         1.9404   -0.7419    0.5596 C.3       1 ACP         0.0978
     18 O3'         2.7418   -0.8086    1.7389 O.3       1 ACP        -0.5800
     19 C2'         0.7477    0.1630    0.7858 C.3       1 ACP         0.0885
     20 O2'         0.1373   -0.0577    2.0407 O.3       1 ACP        -0.5877
     21 C1'         1.3733    1.5427    0.6747 C.3       1 ACP         0.3822
     22 N9          0.4520    2.5240    0.1767 N.pl3     1 ACP        -0.4391
     23 C8         -0.7463    2.2774   -0.7501 C.ar      1 ACP         0.1869
     24 N7         -1.3714    3.4419   -0.9948 N.2       1 ACP        -0.2730
     25 C5         -0.6104    4.3223   -0.2722 C.ar      1 ACP        -0.1385
     26 C6         -0.9062    5.7820   -0.2194 C.ar      1 ACP         0.4818
     27 N6         -1.9385    6.2713   -0.8881 N.pl3     1 ACP        -0.8277
     28 N1         -0.0613    6.4906    0.5336 N.pl3     1 ACP        -0.6982
     29 C2          1.0416    5.8662    1.2291 C.ar      1 ACP         0.6213
     30 N3          1.3146    4.5989    1.1954 N.ar      1 ACP        -0.5099
     31 C4          0.4541    3.8697    0.4273 C.ar      1 ACP         0.2813
     32 HOG3       -3.2884    1.4520   -3.9168 H         1 ACP         0.4118
     33 H3B1        0.0219   -0.5002   -6.1668 H         1 ACP         0.0929
     34 H3B2       -1.7079   -0.7730   -6.3452 H         1 ACP         0.0929
     35 HOA2       -0.6421   -2.8862   -1.4401 H         1 ACP         0.4544
     36 H5'1        2.8428    0.3151   -2.6386 H         1 ACP         0.0887
     37 H5'2        1.2124   -0.0895   -2.0416 H         1 ACP         0.0887
     38 H4'         3.8046   -0.1390   -0.4012 H         1 ACP         0.1198
     39 H3'         1.6786   -1.7628    0.2719 H         1 ACP         0.0796
     40 HO3'        3.5553   -1.2733    1.4913 H         1 ACP         0.4356
     41 H2'         0.0002   -0.0084   -0.0014 H         1 ACP         0.0714
     42 HO2'       -0.1554   -0.9852    2.0577 H         1 ACP         0.4430
     43 H1'         1.7718    1.9211    1.6015 H         1 ACP         0.1194
     44 H8         -1.1244    1.3534   -1.1987 H         1 ACP         0.2736
     45 HN61       -2.5259    5.6573   -1.4336 H         1 ACP         0.4770
     46 HN62       -2.1416    7.2600   -0.8539 H         1 ACP         0.4770
     47 H2          1.6509    6.5764    1.8088 H         1 ACP         0.0919
     48 H48        -0.2190    7.4917    0.6033 H         1 ACP         0.4736
@<TRIPOS>BOND
     1    1    2 2
     2    1    3 1
     3    1    4 1
     4    1    8 1
     5    4   32 1
     6    5    6 2
     7    5    7 1
     8    5    8 1
     9    5   12 1
    10    8   33 1
    11    8   34 1
    12    9   10 2
    13    9   11 1
    14    9   12 1
    15    9   13 1
    16   11   35 1
    17   13   14 1
    18   14   15 1
    19   14   36 1
    20   14   37 1
    21   15   16 1
    22   15   17 1
    23   15   38 1
    24   16   21 1
    25   17   18 1
    26   17   19 1
    27   17   39 1
    28   18   40 1
    29   19   20 1
    30   19   21 1
    31   19   41 1
    32   20   42 1
    33   21   22 1
    34   21   43 1
    35   22   23 ar
    36   22   31 ar
    37   23   24 ar
    38   23   44 1
    39   24   25 ar
    40   25   26 ar
    41   25   31 ar
    42   26   27 1
    43   26   28 ar
    44   27   45 1
    45   27   46 1
    46   28   29 ar
    47   28   48 1
    48   29   30 ar
    49   29   47 1
    50   30   31 ar
@<TRIPOS>SUBSTRUCTURE
     1 ACP         1 GROUP 0 A     ****
@<TRIPOS>MOLECULE
[[5-(6-amino-1,8-dihydropurine-6,8-diylium-7-id-9-yl)-3,4-dihydroxy-tetrahydrofuran-2-yl]methoxy-hydroxy-phosphoryl]oxy-[[hydroxy(oxido)phosphoryl]methyl]phosphinate
   48    50     1     0     0
SMALL
USER_CHARGES

@<TRIPOS>ATOM
      1 PG          2.1604   -4.4309    6.2930 P.3       1 ACP         1.3752
      2 O1G         1.9319   -3.7452    7.6199 O.co2     1 ACP        -0.8816
      3 O2G         1.9221   -3.7305    4.9751 O.co2     1 ACP        -0.8816
      4 O3G         3.6440   -5.1086    6.2834 O.3       1 ACP        -0.7903
      5 PB          1.1190   -7.1576    4.8576 P.3       1 ACP         1.5257
      6 O1B         0.1911   -8.2877    5.2403 O.co2     1 ACP        -0.8730
      7 O2B         2.5492   -7.4056    4.4365 O.co2     1 ACP        -0.8730
      8 C3B         1.1588   -5.9823    6.2821 C.3       1 ACP        -0.5822
      9 PA          0.1574   -6.3494    2.1650 P.3       1 ACP         1.7803
     10 O1A        -0.1698   -7.7361    1.6929 O.2       1 ACP        -0.8736
     11 O2A         1.5170   -5.7347    1.5393 O.3       1 ACP        -0.7984
     12 O3A         0.3795   -6.2104    3.7594 O.3       1 ACP        -0.7763
     13 O5'        -0.9731   -5.2420    1.8247 O.3       1 ACP        -0.5927
     14 C5'        -0.7840   -3.8935    2.2172 C.3       1 ACP         0.1349
     15 C4'        -0.0724   -3.1466    1.1027 C.3       1 ACP         0.1151
     16 O4'        -0.8674   -3.1929   -0.0945 O.3       1 ACP        -0.3857
     17 C3'         0.1338   -1.6715    1.4027 C.3       1 ACP         0.0978
     18 O3'         1.2893   -1.4445    2.1808 O.3       1 ACP        -0.5800
     19 C2'         0.2158   -1.0724    0.0128 C.3       1 ACP         0.0885
     20 O2'         1.5141   -1.2448   -0.5513 O.3       1 ACP        -0.5877
     21 C1'        -0.7897   -1.9176   -0.7583 C.3       1 ACP         0.3822
     22 N9         -2.1040   -1.3333   -0.7704 N.pl3     1 ACP        -0.4391
     23 C8         -3.2124   -1.5345    0.2719 C.ar      1 ACP         0.1869
     24 N7         -4.2964   -0.8234   -0.0828 N.2       1 ACP        -0.2730
     25 C5         -3.8754   -0.2386   -1.2478 C.ar      1 ACP        -0.1385
     26 C6         -4.7432    0.6719   -2.0470 C.ar      1 ACP         0.4818
     27 N6         -5.9725    0.9415   -1.6366 N.pl3     1 ACP        -0.8277
     28 N1         -4.1703    1.1517   -3.1536 N.pl3     1 ACP        -0.6982
     29 C2         -2.8174    0.7994   -3.5215 C.ar      1 ACP         0.6213
     30 N3         -2.0475    0.0097   -2.8393 N.ar      1 ACP        -0.5099
     31 C4         -2.6278   -0.4836   -1.7071 C.ar      1 ACP         0.2813
     32 HOG3        4.4246   -4.5270    6.4041 H         1 ACP         0.4118
     33 H3B1        0.1242   -5.6816    6.4758 H         1 ACP         0.0929
     34 H3B2        1.4880   -6.5692    7.1470 H         1 ACP         0.0929
     35 HOA2        1.5869   -5.6316    0.5664 H         1 ACP         0.4544
     36 H5'1       -1.7611   -3.4415    2.4168 H         1 ACP         0.0887
     37 H5'2       -0.1867   -3.8711    3.1345 H         1 ACP         0.0887
     38 H4'         0.8883   -3.6448    0.8784 H         1 ACP         0.1198
     39 H3'        -0.7368   -1.2358    1.9871 H         1 ACP         0.0796
     40 HO3'        1.3407   -0.4871    2.3218 H         1 ACP         0.4356
     41 H2'        -0.0343   -0.0280    0.0196 H         1 ACP         0.0714
     42 HO2'        2.1443   -0.7955    0.0378 H         1 ACP         0.4430
     43 H1'        -0.5175   -2.1046   -1.7826 H         1 ACP         0.1194
     44 H8         -3.2310   -2.1319    1.1889 H         1 ACP         0.2736
     45 HN61       -6.3230    0.5316   -0.7829 H         1 ACP         0.4770
     46 HN62       -6.5628    1.5584   -2.1760 H         1 ACP         0.4770
     47 H2         -2.4822    1.2710   -4.4579 H         1 ACP         0.0919
     48 H48        -4.7200    1.7780   -3.7346 H         1 ACP         0.4736
@<TRIPOS>BOND
     1    1    2 2
     2    1    3 1
     3    1    4 1
     4    1    8 1
     5    4   32 1
     6    5    6 2
     7    5    7 1
     8    5    8 1
     9    5   12 1
    10    8   33 1
    11    8   34 1
    12    9   10 2
    13    9   11 1
    14    9   12 1
    15    9   13 1
    16   11   35 1
    17   13   14 1
    18   14   15 1
    19   14   36 1
    20   14   37 1
    21   15   16 1
    22   15   17 1
    23   15   38 1
    24   16   21 1
    25   17   18 1
    26   17   19 1
    27   17   39 1
    28   18   40 1
    29   19   20 1
    30   19   21 1
    31   19   41 1
    32   20   42 1
    33   21   22 1
    34   21   43 1
    35   22   23 ar
    36   22   31 ar
    37   23   24 ar
    38   23   44 1
    39   24   25 ar
    40   25   26 ar
    41   25   31 ar
    42   26   27 1
    43   26   28 ar
    44   27   45 1
    45   27   46 1
    46   28   29 ar
    47   28   48 1
    48   29   30 ar
    49   29   47 1
    50   30   31 ar
@<TRIPOS>SUBSTRUCTURE
     1 ACP         1 GROUP 0 A     ****
@<TRIPOS>MOLECULE
[[5-(6-amino-1,8-dihydropurine-6,8-diylium-7-id-9-yl)-3,4-dihydroxy-tetrahydrofuran-2-yl]methoxy-hydroxy-phosphoryl]oxy-[[hydroxy(oxido)phosphoryl]methyl]phosphinate
   48    50     1     0     0
SMALL
USER_CHARGES

@<TRIPOS>ATOM
      1 PG          3.0406   -5.6807   -4.2075 P.3       1 ACP         1.3752
      2 O1G         1.9793   -6.7148   -3.9126 O.co2     1 ACP        -0.8816
      3 O2G         4.0749   -5.2758   -3.1825 O.co2     1 ACP        -0.8816
      4 O3G         3.7873   -6.0569   -5.6080 O.3       1 ACP        -0.7903
      5 PB          3.0805   -2.5968   -5.2410 P.3       1 ACP         1.5257
      6 O1B         2.0331   -1.5804   -5.6339 O.co2     1 ACP        -0.8730
      7 O2B         4.2006   -2.9922   -6.1756 O.co2     1 ACP        -0.8730
      8 C3B         2.1863   -4.1418   -4.7663 C.3       1 ACP        -0.5822
      9 PA          4.4721   -0.8835   -3.2519 P.3       1 ACP         1.7803
     10 O1A         5.4692   -0.3056   -4.2136 O.2       1 ACP        -0.8736
     11 O2A         5.1060   -1.3695   -1.8449 O.3       1 ACP        -0.7984
     12 O3A         3.6940   -2.1943   -3.7878 O.3       1 ACP        -0.7763
     13 O5'         3.2872    0.1331   -2.8242 O.3       1 ACP        -0.5927
     14 C5'         2.2816   -0.2918   -1.9206 C.3       1 ACP         0.1349
     15 C4'         2.7248    0.0226   -0.4980 C.3       1 ACP         0.1151
     16 O4'         2.4697    1.4219   -0.2462 O.3       1 ACP        -0.3857
     17 C3'         1.9404   -0.7419    0.5596 C.3       1 ACP         0.0978
     18 O3'         2.7418   -0.8086    1.7389 O.3       1 ACP        -0.5800
     19 C2'         0.7477    0.1630    0.7858 C.3       1 ACP         0.0885
     20 O2'         0.1373   -0.0577    2.0407 O.3       1 ACP        -0.5877
     21 C1'         1.3733    1.5427    0.6747 C.3       1 ACP         0.3822
     22 N9          0.4520    2.5240    0.1767 N.pl3     1 ACP        -0.4391
     23 C8         -1.0660    2.5608    0.3999 C.ar      1 ACP         0.1869
     24 N7         -1.5852    3.6333   -0.2221 N.2       1 ACP        -0.2730
     25 C5         -0.4682    4.1996   -0.7771 C.ar      1 ACP        -0.1385
     26 C6         -0.5216    5.4476   -1.5899 C.ar      1 ACP         0.4818
     27 N6         -1.6813    6.0510   -1.7982 N.pl3     1 ACP        -0.8277
     28 N1          0.6621    5.8575   -2.0523 N.pl3     1 ACP        -0.6982
     29 C2          1.8795    5.1301   -1.7717 C.ar      1 ACP         0.6213
     30 N3          1.9458    4.0434   -1.0670 N.ar      1 ACP        -0.5099
     31 C4          0.7388    3.6199   -0.5917 C.ar      1 ACP         0.2813
     32 HOG3        4.2505   -6.9191   -5.6741 H         1 ACP         0.4118
     33 H3B1        1.4860   -3.8722   -3.9693 H         1 ACP         0.0929
     34 H3B2        1.5849   -4.4212   -5.6388 H         1 ACP         0.0929
     35 HOA2        5.5648   -0.7123   -1.2794 H         1 ACP         0.4544
     36 H5'1        1.3493    0.2322   -2.1551 H         1 ACP         0.0887
     37 H5'2        2.1259   -1.3686   -2.0434 H         1 ACP         0.0887
     38 H4'         3.8046   -0.1390   -0.4012 H         1 ACP         0.1198
     39 H3'         1.6786   -1.7628    0.2719 H         1 ACP         0.0796
     40 HO3'        3.5553   -1.2733    1.4913 H         1 ACP         0.4356
     41 H2'         0.0002   -0.0084   -0.0014 H         1 ACP         0.0714
     42 HO2'       -0.1554   -0.9852    2.0577 H         1 ACP         0.4430
     43 H1'         1.7718    1.9211    1.6015 H         1 ACP         0.1194
     44 H8         -1.7235    1.8833    0.9537 H         1 ACP         0.2736
     45 HN61       -2.5296    5.6672   -1.4072 H         1 ACP         0.4770
     46 HN62       -1.7205    6.8969   -2.3483 H         1 ACP         0.4770
     47 H2          2.7750    5.5878   -2.2190 H         1 ACP         0.0919
     48 H48         0.6808    6.7046   -2.6128 H         1 ACP         0.4736
@<TRIPOS>BOND
     1    1    2 2
     2    1    3 1
     3    1    4 1
     4    1    8 1
     5    4   32 1
     6    5    6 2
     7    5    7 1
     8    5    8 1
     9    5   12 1
    10    8   33 1
    11    8   34 1
    12    9   10 2
    13    9   11 1
    14    9   12 1
    15    9   13 1
    16   11   35 1
    17   13   14 1
    18   14   15 1
    19   14   36 1
    20   14   37 1
    21   15   16 1
    22   15   17 1
    23   15   38 1
    24   16   21 1
    25   17   18 1
    26   17   19 1
    27   17   39 1
    28   18   40 1
    29   19   20 1
    30   19   21 1
    31   19   41 1
    32   20   42 1
    33   21   22 1
    34   21   43 1
    35   22   23 ar
    36   22   31 ar
    37   23   24 ar
    38   23   44 1
    39   24   25 ar
    40   25   26 ar
    41   25   31 ar
    42   26   27 1
    43   26   28 ar
    44   27   45 1
    45   27   46 1
    46   28   29 ar
    47   28   48 1
    48   29   30 ar
    49   29   47 1
    50   30   31 ar
@<TRIPOS>SUBSTRUCTURE
     1 ACP         1 GROUP 0 A     ****
@<TRIPOS>MOLECULE
[[5-(6-amino-1,8-dihydropurine-6,8-diylium-7-id-9-yl)-3,4-dihydroxy-tetrahydrofuran-2-yl]methoxy-hydroxy-phosphoryl]oxy-[[hydroxy(oxido)phosphoryl]methyl]phosphinate
   48    50     1     0     0
SMALL
USER_CHARGES

@<TRIPOS>ATOM
      1 PG          5.3284   -4.1983   -5.9743 P.3       1 ACP         1.3752
      2 O1G         5.3652   -5.7087   -5.9733 O.co2     1 ACP        -0.8816
      3 O2G         6.3157   -3.3699   -5.1847 O.co2     1 ACP        -0.8816
      4 O3G         5.2814   -3.6599   -7.5133 O.3       1 ACP        -0.7903
      5 PB          3.1129   -1.9106   -5.3122 P.3       1 ACP         1.5257
      6 O1B         1.6681   -1.9089   -4.8683 O.co2     1 ACP        -0.8730
      7 O2B         3.5639   -1.2016   -6.5686 O.co2     1 ACP        -0.8730
      8 C3B         3.6339   -3.6768   -5.4579 C.3       1 ACP        -0.5822
      9 PA          4.4222   -0.0245   -3.4263 P.3       1 ACP         1.7803
     10 O1A         5.0980    0.9267   -4.3703 O.2       1 ACP        -0.8736
     11 O2A         5.2971   -0.4013   -2.1184 O.3       1 ACP        -0.7984
     12 O3A         4.0545   -1.4640   -4.0615 O.3       1 ACP        -0.7763
     13 O5'         3.0189    0.5129   -2.8246 O.3       1 ACP        -0.5927
     14 C5'         2.2816   -0.2918   -1.9206 C.3       1 ACP         0.1349
     15 C4'         2.7248    0.0226   -0.4980 C.3       1 ACP         0.1151
     16 O4'         2.4697    1.4219   -0.2462 O.3       1 ACP        -0.3857
     17 C3'         1.9404   -0.7419    0.5596 C.3       1 ACP         0.0978
     18 O3'         2.7418   -0.8086    1.7389 O.3       1 ACP        -0.5800
     19 C2'         0.7477    0.1630    0.7858 C.3       1 ACP         0.0885
     20 O2'         0.1373   -0.0577    2.0407 O.3       1 ACP        -0.5877
     21 C1'         1.3733    1.5427    0.6747 C.3       1 ACP         0.3822
     22 N9          0.4520    2.5240    0.1767 N.pl3     1 ACP        -0.4391
     23 C8         -0.4598    3.4379    1.0068 C.ar      1 ACP         0.1869
     24 N7         -1.1770    4.2228    0.1845 N.2       1 ACP        -0.2730
     25 C5         -0.7330    3.8149   -1.0455 C.ar      1 ACP        -0.1385
     26 C6         -1.2413    4.4029   -2.3169 C.ar      1 ACP         0.4818
     27 N6         -2.1578    5.3575   -2.2832 N.pl3     1 ACP        -0.8277
     28 N1         -0.6977    3.8860   -3.4216 N.pl3     1 ACP        -0.6982
     29 C2          0.3002    2.8419   -3.3591 C.ar      1 ACP         0.6213
     30 N3          0.7548    2.3183   -2.2631 N.ar      1 ACP        -0.5099
     31 C4          0.2027    2.8430   -1.1309 C.ar      1 ACP         0.2813
     32 HOG3        6.0210   -3.8942   -8.1135 H         1 ACP         0.4118
     33 H3B1        3.4517   -4.1438   -4.4847 H         1 ACP         0.0929
     34 H3B2        2.9383   -4.1378   -6.1683 H         1 ACP         0.0929
     35 HOA2        5.5722    0.3165   -1.5091 H         1 ACP         0.4544
     36 H5'1        1.2148   -0.0787   -2.0445 H         1 ACP         0.0887
     37 H5'2        2.4640   -1.3460   -2.1537 H         1 ACP         0.0887
     38 H4'         3.8046   -0.1390   -0.4012 H         1 ACP         0.1198
     39 H3'         1.6786   -1.7628    0.2719 H         1 ACP         0.0796
     40 HO3'        2.2231   -1.2979    2.3952 H         1 ACP         0.4356
     41 H2'         0.0002   -0.0084   -0.0014 H         1 ACP         0.0714
     42 HO2'       -0.6132    0.5577    2.1063 H         1 ACP         0.4430
     43 H1'         1.7718    1.9211    1.6015 H         1 ACP         0.1194
     44 H8         -0.5892    3.5248    2.0902 H         1 ACP         0.2736
     45 HN61       -2.5128    5.6880   -1.3974 H         1 ACP         0.4770
     46 HN62       -2.5040    5.7581   -3.1431 H         1 ACP         0.4770
     47 H2          0.6550    2.5166   -4.3490 H         1 ACP         0.0919
     48 H48        -1.0101    4.2527   -4.3160 H         1 ACP         0.4736
@<TRIPOS>BOND
     1    1    2 2
     2    1    3 1
     3    1    4 1
     4    1    8 1
     5    4   32 1
     6    5    6 2
     7    5    7 1
     8    5    8 1
     9    5   12 1
    10    8   33 1
    11    8   34 1
    12    9   10 2
    13    9   11 1
    14    9   12 1
    15    9   13 1
    16   11   35 1
    17   13   14 1
    18   14   15 1
    19   14   36 1
    20   14   37 1
    21   15   16 1
    22   15   17 1
    23   15   38 1
    24   16   21 1
    25   17   18 1
    26   17   19 1
    27   17   39 1
    28   18   40 1
    29   19   20 1
    30   19   21 1
    31   19   41 1
    32   20   42 1
    33   21   22 1
    34   21   43 1
    35   22   23 ar
    36   22   31 ar
    37   23   24 ar
    38   23   44 1
    39   24   25 ar
    40   25   26 ar
    41   25   31 ar
    42   26   27 1
    43   26   28 ar
    44   27   45 1
    45   27   46 1
    46   28   29 ar
    47   28   48 1
    48   29   30 ar
    49   29   47 1
    50   30   31 ar
@<TRIPOS>SUBSTRUCTURE
     1 ACP         1 GROUP 0 A     ****
@<TRIPOS>MOLECULE
[[5-(6-amino-1,8-dihydropurine-6,8-diylium-7-id-9-yl)-3,4-dihydroxy-tetrahydrofuran-2-yl]methoxy-hydroxy-phosphoryl]oxy-[[hydroxy(oxido)phosphoryl]methyl]phosphinate
   48    50     1     0     0
SMALL
USER_CHARGES

@<TRIPOS>ATOM
      1 PG          6.7636    1.0434    0.0120 P.3       1 ACP         1.3752
      2 O1G         7.0558    1.4753    1.4300 O.co2     1 ACP        -0.8816
      3 O2G         5.4842    1.4244   -0.6966 O.co2     1 ACP        -0.8816
      4 O3G         8.0371    1.4117   -0.9384 O.3       1 ACP        -0.7903
      5 PB          6.6313   -1.7823   -1.5938 P.3       1 ACP         1.5257
      6 O1B         6.8385   -3.2353   -1.2329 O.co2     1 ACP        -0.8730
      7 O2B         7.4124   -1.1149   -2.7024 O.co2     1 ACP        -0.8730
      8 C3B         6.9043   -0.7967   -0.0556 C.3       1 ACP        -0.5822
      9 PA          3.9434   -2.1258   -2.8126 P.3       1 ACP         1.7803
     10 O1A         4.0658   -3.6032   -3.0475 O.2       1 ACP        -0.8736
     11 O2A         4.1069   -1.2223   -4.1449 O.3       1 ACP        -0.7984
     12 O3A         5.0402   -1.5068   -1.8003 O.3       1 ACP        -0.7763
     13 O5'         2.5233   -1.6621   -2.1894 O.3       1 ACP        -0.5927
     14 C5'         2.2816   -0.2918   -1.9206 C.3       1 ACP         0.1349
     15 C4'         2.7248    0.0226   -0.4980 C.3       1 ACP         0.1151
     16 O4'         2.4697    1.4219   -0.2462 O.3       1 ACP        -0.3857
     17 C3'         1.9404   -0.7419    0.5596 C.3       1 ACP         0.0978
     18 O3'         2.7418   -0.8086    1.7389 O.3       1 ACP        -0.5800
     19 C2'         0.7477    0.1630    0.7858 C.3       1 ACP         0.0885
     20 O2'         0.1373   -0.0577    2.0407 O.3       1 ACP        -0.5877
     21 C1'         1.3733    1.5427    0.6747 C.3       1 ACP         0.3822
     22 N9          0.4520    2.5240    0.1767 N.pl3     1 ACP        -0.4391
     23 C8         -0.7463    2.2774   -0.7501 C.ar      1 ACP         0.1869
     24 N7         -1.3714    3.4419   -0.9948 N.2       1 ACP        -0.2730
     25 C5         -0.6104    4.3223   -0.2722 C.ar      1 ACP        -0.1385
     26 C6         -0.9062    5.7820   -0.2194 C.ar      1 ACP         0.4818
     27 N6         -1.9385    6.2713   -0.8881 N.pl3     1 ACP        -0.8277
     28 N1         -0.0613    6.4906    0.5336 N.pl3     1 ACP        -0.6982
     29 C2          1.0416    5.8662    1.2291 C.ar      1 ACP         0.6213
     30 N3          1.3146    4.5989    1.1954 N.ar      1 ACP        -0.5099
     31 C4          0.4541    3.8697    0.4273 C.ar      1 ACP         0.2813
     32 HOG3        8.3092    2.3512   -1.0123 H         1 ACP         0.4118
     33 H3B1        6.2130   -1.1858    0.6987 H         1 ACP         0.0929
     34 H3B2        7.9174   -1.0422    0.2829 H         1 ACP         0.0929
     35 HOA2        3.4798   -1.3548   -4.8874 H         1 ACP         0.4544
     36 H5'1        2.8428    0.3151   -2.6386 H         1 ACP         0.0887
     37 H5'2        1.2124   -0.0895   -2.0416 H         1 ACP         0.0887
     38 H4'         3.8046   -0.1390   -0.4012 H         1 ACP         0.1198
     39 H3'         1.6786   -1.7628    0.2719 H         1 ACP         0.0796
     40 HO3'        3.5553   -1.2733    1.4913 H         1 ACP         0.4356
     41 H2'         0.0002   -0.0084   -0.0014 H         1 ACP         0.0714
     42 HO2'       -0.6132    0.5577    2.1063 H         1 ACP         0.4430
     43 H1'         1.7718    1.9211    1.6015 H         1 ACP         0.1194
     44 H8         -1.1244    1.3534   -1.1987 H         1 ACP         0.2736
     45 HN61       -2.5259    5.6573   -1.4336 H         1 ACP         0.4770
     46 HN62       -2.1416    7.2600   -0.8539 H         1 ACP         0.4770
     47 H2          1.6509    6.5764    1.8088 H         1 ACP         0.0919
     48 H48        -0.2190    7.4917    0.6033 H         1 ACP         0.4736
@<TRIPOS>BOND
     1    1    2 2
     2    1    3 1
     3    1    4 1
     4    1    8 1
     5    4   32 1
     6    5    6 2
     7    5    7 1
     8    5    8 1
     9    5   12 1
    10    8   33 1
    11    8   34 1
    12    9   10 2
    13    9   11 1
    14    9   12 1
    15    9   13 1
    16   11   35 1
    17   13   14 1
    18   14   15 1
    19   14   36 1
    20   14   37 1
    21   15   16 1
    22   15   17 1
    23   15   38 1
    24   16   21 1
    25   17   18 1
    26   17   19 1
    27   17   39 1
    28   18   40 1
    29   19   20 1
    30   19   21 1
    31   19   41 1
    32   20   42 1
    33   21   22 1
    34   21   43 1
    35   22   23 ar
    36   22   31 ar
    37   23   24 ar
    38   23   44 1
    39   24   25 ar
    40   25   26 ar
    41   25   31 ar
    42   26   27 1
    43   26   28 ar
    44   27   45 1
    45   27   46 1
    46   28   29 ar
    47   28   48 1
    48   29   30 ar
    49   29   47 1
    50   30   31 ar
@<TRIPOS>SUBSTRUCTURE
     1 ACP         1 GROUP 0 A     ****
@<TRIPOS>MOLECULE
[[5-(6-amino-1,8-dihydropurine-6,8-diylium-7-id-9-yl)-3,4-dihydroxy-tetrahydrofuran-2-yl]methoxy-hydroxy-phosphoryl]oxy-[[hydroxy(oxido)phosphoryl]methyl]phosphinate
   48    50     1     0     0
SMALL
USER_CHARGES

@<TRIPOS>ATOM
      1 PG         -2.4698    1.0381   -3.0279 P.3       1 ACP         1.3752
      2 O1G        -3.5235    1.4053   -2.0092 O.co2     1 ACP        -0.8816
      3 O2G        -1.4800   -0.0796   -2.7930 O.co2     1 ACP        -0.8816
      4 O3G        -3.1740    0.8378   -4.4855 O.3       1 ACP        -0.7903
      5 PB         -0.0955    2.6028   -4.6074 P.3       1 ACP         1.5257
      6 O1B         0.4264    4.0211   -4.6330 O.co2     1 ACP        -0.8730
      7 O2B        -0.5536    1.8970   -5.8629 O.co2     1 ACP        -0.8730
      8 C3B        -1.4998    2.5629   -3.4081 C.3       1 ACP        -0.5822
      9 PA          2.3556    0.9663   -4.2298 P.3       1 ACP         1.7803
     10 O1A         3.2447    1.8153   -5.0909 O.2       1 ACP        -0.8736
     11 O2A         1.8903   -0.4230   -4.9163 O.3       1 ACP        -0.7984
     12 O3A         0.9609    1.6613   -3.8024 O.3       1 ACP        -0.7763
     13 O5'         3.0189    0.5129   -2.8246 O.3       1 ACP        -0.5927
     14 C5'         2.2816   -0.2918   -1.9206 C.3       1 ACP         0.1349
     15 C4'         2.7248    0.0226   -0.4980 C.3       1 ACP         0.1151
     16 O4'         2.4697    1.4219   -0.2462 O.3       1 ACP        -0.3857
     17 C3'         1.9404   -0.7419    0.5596 C.3       1 ACP         0.0978
     18 O3'         2.7418   -0.8086    1.7389 O.3       1 ACP        -0.5800
     19 C2'         0.7477    0.1630    0.7858 C.3       1 ACP         0.0885
     20 O2'         0.1373   -0.0577    2.0407 O.3       1 ACP        -0.5877
     21 C1'         1.3733    1.5427    0.6747 C.3       1 ACP         0.3822
     22 N9          0.4520    2.5240    0.1767 N.pl3     1 ACP        -0.4391
     23 C8         -1.0660    2.5608    0.3999 C.ar      1 ACP         0.1869
     24 N7         -1.5852    3.6333   -0.2221 N.2       1 ACP        -0.2730
     25 C5         -0.4682    4.1996   -0.7771 C.ar      1 ACP        -0.1385
     26 C6         -0.5216    5.4476   -1.5899 C.ar      1 ACP         0.4818
     27 N6         -1.6813    6.0510   -1.7982 N.pl3     1 ACP        -0.8277
     28 N1          0.6621    5.8575   -2.0523 N.pl3     1 ACP        -0.6982
     29 C2          1.8795    5.1301   -1.7717 C.ar      1 ACP         0.6213
     30 N3          1.9458    4.0434   -1.0670 N.ar      1 ACP        -0.5099
     31 C4          0.7388    3.6199   -0.5917 C.ar      1 ACP         0.2813
     32 HOG3       -3.8662    0.1493   -4.5798 H         1 ACP         0.4118
     33 H3B1       -1.1119    2.9270   -2.4514 H         1 ACP         0.0929
     34 H3B2       -2.2208    3.3074   -3.7644 H         1 ACP         0.0929
     35 HOA2        1.3792   -0.3905   -5.7529 H         1 ACP         0.4544
     36 H5'1        1.2148   -0.0787   -2.0445 H         1 ACP         0.0887
     37 H5'2        2.4640   -1.3460   -2.1537 H         1 ACP         0.0887
     38 H4'         3.8046   -0.1390   -0.4012 H         1 ACP         0.1198
     39 H3'         1.6786   -1.7628    0.2719 H         1 ACP         0.0796
     40 HO3'        2.2231   -1.2979    2.3952 H         1 ACP         0.4356
     41 H2'         0.0002   -0.0084   -0.0014 H         1 ACP         0.0714
     42 HO2'       -0.1554   -0.9852    2.0577 H         1 ACP         0.4430
     43 H1'         1.7718    1.9211    1.6015 H         1 ACP         0.1194
     44 H8         -1.7235    1.8833    0.9537 H         1 ACP         0.2736
     45 HN61       -2.5296    5.6672   -1.4072 H         1 ACP         0.4770
     46 HN62       -1.7205    6.8969   -2.3483 H         1 ACP         0.4770
     47 H2          2.7750    5.5878   -2.2190 H         1 ACP         0.0919
     48 H48         0.6808    6.7046   -2.6128 H         1 ACP         0.4736
@<TRIPOS>BOND
     1    1    2 2
     2    1    3 1
     3    1    4 1
     4    1    8 1
     5    4   32 1
     6    5    6 2
     7    5    7 1
     8    5    8 1
     9    5   12 1
    10    8   33 1
    11    8   34 1
    12    9   10 2
    13    9   11 1
    14    9   12 1
    15    9   13 1
    16   11   35 1
    17   13   14 1
    18   14   15 1
    19   14   36 1
    20   14   37 1
    21   15   16 1
    22   15   17 1
    23   15   38 1
    24   16   21 1
    25   17   18 1
    26   17   19 1
    27   17   39 1
    28   18   40 1
    29   19   20 1
    30   19   21 1
    31   19   41 1
    32   20   42 1
    33   21   22 1
    34   21   43 1
    35   22   23 ar
    36   22   31 ar
    37   23   24 ar
    38   23   44 1
    39   24   25 ar
    40   25   26 ar
    41   25   31 ar
    42   26   27 1
    43   26   28 ar
    44   27   45 1
    45   27   46 1
    46   28   29 ar
    47   28   48 1
    48   29   30 ar
    49   29   47 1
    50   30   31 ar
@<TRIPOS>SUBSTRUCTURE
     1 ACP         1 GROUP 0 A     ****
@<TRIPOS>MOLECULE
[[5-(6-amino-1,8-dihydropurine-6,8-diylium-7-id-9-yl)-3,4-dihydroxy-tetrahydrofuran-2-yl]methoxy-hydroxy-phosphoryl]oxy-[[hydroxy(oxido)phosphoryl]methyl]phosphinate
   48    50     1     0     0
SMALL
USER_CHARGES

@<TRIPOS>ATOM
      1 PG          8.0702    0.1231   -0.8409 P.3       1 ACP         1.3752
      2 O1G         8.5548    1.3621   -0.1249 O.co2     1 ACP        -0.8816
      3 O2G         7.6962    0.1358   -2.3052 O.co2     1 ACP        -0.8816
      4 O3G         9.1071   -1.1041   -0.5594 O.3       1 ACP        -0.7903
      5 PB          5.6878   -2.0489   -0.4085 P.3       1 ACP         1.5257
      6 O1B         4.5846   -2.2479    0.6053 O.co2     1 ACP        -0.8730
      7 O2B         6.7047   -3.1271   -0.7052 O.co2     1 ACP        -0.8730
      8 C3B         6.6193   -0.5347    0.0931 C.3       1 ACP        -0.5822
      9 PA          3.9434   -2.1258   -2.8126 P.3       1 ACP         1.7803
     10 O1A         4.0658   -3.6032   -3.0475 O.2       1 ACP        -0.8736
     11 O2A         4.1069   -1.2223   -4.1449 O.3       1 ACP        -0.7984
     12 O3A         5.0402   -1.5068   -1.8003 O.3       1 ACP        -0.7763
     13 O5'         2.5233   -1.6621   -2.1894 O.3       1 ACP        -0.5927
     14 C5'         2.2816   -0.2918   -1.9206 C.3       1 ACP         0.1349
     15 C4'         2.7248    0.0226   -0.4980 C.3       1 ACP         0.1151
     16 O4'         2.4697    1.4219   -0.2462 O.3       1 ACP        -0.3857
     17 C3'         1.9404   -0.7419    0.5596 C.3       1 ACP         0.0978
     18 O3'         2.7418   -0.8086    1.7389 O.3       1 ACP        -0.5800
     19 C2'         0.7477    0.1630    0.7858 C.3       1 ACP         0.0885
     20 O2'         0.1373   -0.0577    2.0407 O.3       1 ACP        -0.5877
     21 C1'         1.3733    1.5427    0.6747 C.3       1 ACP         0.3822
     22 N9          0.4520    2.5240    0.1767 N.pl3     1 ACP        -0.4391
     23 C8         -0.7463    2.2774   -0.7501 C.ar      1 ACP         0.1869
     24 N7         -1.3714    3.4419   -0.9948 N.2       1 ACP        -0.2730
     25 C5         -0.6104    4.3223   -0.2722 C.ar      1 ACP        -0.1385
     26 C6         -0.9062    5.7820   -0.2194 C.ar      1 ACP         0.4818
     27 N6         -1.9385    6.2713   -0.8881 N.pl3     1 ACP        -0.8277
     28 N1         -0.0613    6.4906    0.5336 N.pl3     1 ACP        -0.6982
     29 C2          1.0416    5.8662    1.2291 C.ar      1 ACP         0.6213
     30 N3          1.3146    4.5989    1.1954 N.ar      1 ACP        -0.5099
     31 C4          0.4541    3.8697    0.4273 C.ar      1 ACP         0.2813
     32 HOG3       10.0414   -1.0005   -0.8396 H         1 ACP         0.4118
     33 H3B1        5.8928    0.2824    0.1479 H         1 ACP         0.0929
     34 H3B2        6.9679   -0.7210    1.1152 H         1 ACP         0.0929
     35 HOA2        4.9458   -1.2710   -4.6507 H         1 ACP         0.4544
     36 H5'1        2.8428    0.3151   -2.6386 H         1 ACP         0.0887
     37 H5'2        1.2124   -0.0895   -2.0416 H         1 ACP         0.0887
     38 H4'         3.8046   -0.1390   -0.4012 H         1 ACP         0.1198
     39 H3'         1.6786   -1.7628    0.2719 H         1 ACP         0.0796
     40 HO3'        2.2231   -1.2979    2.3952 H         1 ACP         0.4356
     41 H2'         0.0002   -0.0084   -0.0014 H         1 ACP         0.0714
     42 HO2'        0.8091    0.1203    2.7213 H         1 ACP         0.4430
     43 H1'         1.7718    1.9211    1.6015 H         1 ACP         0.1194
     44 H8         -1.1244    1.3534   -1.1987 H         1 ACP         0.2736
     45 HN61       -2.5259    5.6573   -1.4336 H         1 ACP         0.4770
     46 HN62       -2.1416    7.2600   -0.8539 H         1 ACP         0.4770
     47 H2          1.6509    6.5764    1.8088 H         1 ACP         0.0919
     48 H48        -0.2190    7.4917    0.6033 H         1 ACP         0.4736
@<TRIPOS>BOND
     1    1    2 2
     2    1    3 1
     3    1    4 1
     4    1    8 1
     5    4   32 1
     6    5    6 2
     7    5    7 1
     8    5    8 1
     9    5   12 1
    10    8   33 1
    11    8   34 1
    12    9   10 2
    13    9   11 1
    14    9   12 1
    15    9   13 1
    16   11   35 1
    17   13   14 1
    18   14   15 1
    19   14   36 1
    20   14   37 1
    21   15   16 1
    22   15   17 1
    23   15   38 1
    24   16   21 1
    25   17   18 1
    26   17   19 1
    27   17   39 1
    28   18   40 1
    29   19   20 1
    30   19   21 1
    31   19   41 1
    32   20   42 1
    33   21   22 1
    34   21   43 1
    35   22   23 ar
    36   22   31 ar
    37   23   24 ar
    38   23   44 1
    39   24   25 ar
    40   25   26 ar
    41   25   31 ar
    42   26   27 1
    43   26   28 ar
    44   27   45 1
    45   27   46 1
    46   28   29 ar
    47   28   48 1
    48   29   30 ar
    49   29   47 1
    50   30   31 ar
@<TRIPOS>SUBSTRUCTURE
     1 ACP         1 GROUP 0 A     ****
@<TRIPOS>MOLECULE
[[5-(6-amino-1,8-dihydropurine-6,8-diylium-7-id-9-yl)-3,4-dihydroxy-tetrahydrofuran-2-yl]methoxy-hydroxy-phosphoryl]oxy-[[hydroxy(oxido)phosphoryl]methyl]phosphinate
   48    50     1     0     0
SMALL
USER_CHARGES

@<TRIPOS>ATOM
      1 PG          8.0702    0.1231   -0.8409 P.3       1 ACP         1.3752
      2 O1G         8.5548    1.3621   -0.1249 O.co2     1 ACP        -0.8816
      3 O2G         7.6962    0.1358   -2.3052 O.co2     1 ACP        -0.8816
      4 O3G         9.1071   -1.1041   -0.5594 O.3       1 ACP        -0.7903
      5 PB          5.6878   -2.0489   -0.4085 P.3       1 ACP         1.5257
      6 O1B         4.5846   -2.2479    0.6053 O.co2     1 ACP        -0.8730
      7 O2B         6.7047   -3.1271   -0.7052 O.co2     1 ACP        -0.8730
      8 C3B         6.6193   -0.5347    0.0931 C.3       1 ACP        -0.5822
      9 PA          3.9434   -2.1258   -2.8126 P.3       1 ACP         1.7803
     10 O1A         4.0658   -3.6032   -3.0475 O.2       1 ACP        -0.8736
     11 O2A         4.1069   -1.2223   -4.1449 O.3       1 ACP        -0.7984
     12 O3A         5.0402   -1.5068   -1.8003 O.3       1 ACP        -0.7763
     13 O5'         2.5233   -1.6621   -2.1894 O.3       1 ACP        -0.5927
     14 C5'         2.2816   -0.2918   -1.9206 C.3       1 ACP         0.1349
     15 C4'         2.7248    0.0226   -0.4980 C.3       1 ACP         0.1151
     16 O4'         2.4697    1.4219   -0.2462 O.3       1 ACP        -0.3857
     17 C3'         1.9404   -0.7419    0.5596 C.3       1 ACP         0.0978
     18 O3'         2.7418   -0.8086    1.7389 O.3       1 ACP        -0.5800
     19 C2'         0.7477    0.1630    0.7858 C.3       1 ACP         0.0885
     20 O2'         0.1373   -0.0577    2.0407 O.3       1 ACP        -0.5877
     21 C1'         1.3733    1.5427    0.6747 C.3       1 ACP         0.3822
     22 N9          0.4520    2.5240    0.1767 N.pl3     1 ACP        -0.4391
     23 C8         -0.4598    3.4379    1.0068 C.ar      1 ACP         0.1869
     24 N7         -1.1770    4.2228    0.1845 N.2       1 ACP        -0.2730
     25 C5         -0.7330    3.8149   -1.0455 C.ar      1 ACP        -0.1385
     26 C6         -1.2413    4.4029   -2.3169 C.ar      1 ACP         0.4818
     27 N6         -2.1578    5.3575   -2.2832 N.pl3     1 ACP        -0.8277
     28 N1         -0.6977    3.8860   -3.4216 N.pl3     1 ACP        -0.6982
     29 C2          0.3002    2.8419   -3.3591 C.ar      1 ACP         0.6213
     30 N3          0.7548    2.3183   -2.2631 N.ar      1 ACP        -0.5099
     31 C4          0.2027    2.8430   -1.1309 C.ar      1 ACP         0.2813
     32 HOG3       10.0414   -1.0005   -0.8396 H         1 ACP         0.4118
     33 H3B1        5.8928    0.2824    0.1479 H         1 ACP         0.0929
     34 H3B2        6.9679   -0.7210    1.1152 H         1 ACP         0.0929
     35 HOA2        3.4798   -1.3548   -4.8874 H         1 ACP         0.4544
     36 H5'1        2.8428    0.3151   -2.6386 H         1 ACP         0.0887
     37 H5'2        1.2124   -0.0895   -2.0416 H         1 ACP         0.0887
     38 H4'         3.8046   -0.1390   -0.4012 H         1 ACP         0.1198
     39 H3'         1.6786   -1.7628    0.2719 H         1 ACP         0.0796
     40 HO3'        2.2231   -1.2979    2.3952 H         1 ACP         0.4356
     41 H2'         0.0002   -0.0084   -0.0014 H         1 ACP         0.0714
     42 HO2'       -0.6132    0.5577    2.1063 H         1 ACP         0.4430
     43 H1'         1.7718    1.9211    1.6015 H         1 ACP         0.1194
     44 H8         -0.5892    3.5248    2.0902 H         1 ACP         0.2736
     45 HN61       -2.5128    5.6880   -1.3974 H         1 ACP         0.4770
     46 HN62       -2.5040    5.7581   -3.1431 H         1 ACP         0.4770
     47 H2          0.6550    2.5166   -4.3490 H         1 ACP         0.0919
     48 H48        -1.0101    4.2527   -4.3160 H         1 ACP         0.4736
@<TRIPOS>BOND
     1    1    2 2
     2    1    3 1
     3    1    4 1
     4    1    8 1
     5    4   32 1
     6    5    6 2
     7    5    7 1
     8    5    8 1
     9    5   12 1
    10    8   33 1
    11    8   34 1
    12    9   10 2
    13    9   11 1
    14    9   12 1
    15    9   13 1
    16   11   35 1
    17   13   14 1
    18   14   15 1
    19   14   36 1
    20   14   37 1
    21   15   16 1
    22   15   17 1
    23   15   38 1
    24   16   21 1
    25   17   18 1
    26   17   19 1
    27   17   39 1
    28   18   40 1
    29   19   20 1
    30   19   21 1
    31   19   41 1
    32   20   42 1
    33   21   22 1
    34   21   43 1
    35   22   23 ar
    36   22   31 ar
    37   23   24 ar
    38   23   44 1
    39   24   25 ar
    40   25   26 ar
    41   25   31 ar
    42   26   27 1
    43   26   28 ar
    44   27   45 1
    45   27   46 1
    46   28   29 ar
    47   28   48 1
    48   29   30 ar
    49   29   47 1
    50   30   31 ar
@<TRIPOS>SUBSTRUCTURE
     1 ACP         1 GROUP 0 A     ****
