ACY
  CCTOOLS-0326171057

  8  7  0  0  0  0  0  0  0  0999 V2000
   -8.6820    8.1700    3.8030 C   0  0  0  0  0
   -9.4670    8.5240    4.7830 O   0  0  0  0  0
   -8.1920    7.0090    3.5800 O   0  0  0  0  0
   -8.4020    9.2940    2.8210 C   0  0  0  0  0
   -8.4870    6.4060    4.2520 H   0  0  0  0  0
   -8.9310   10.2030    3.1430 H   0  0  0  0  0
   -7.3200    9.4920    2.7890 H   0  0  0  0  0
   -8.7510    9.0010    1.8200 H   0  0  0  0  0
  1  2  2  0  0  0
  1  3  1  0  0  0
  1  4  1  0  0  0
  3  5  1  0  0  0
  4  6  1  0  0  0
  4  7  1  0  0  0
  4  8  1  0  0  0
M  END
$$$$
